
#======================================================================
# CRYSTAL DATA
#----------------------------------------------------------------------
data_VESTA_phase_1

_chemical_name_common                  'crystal                               '
_cell_length_a                         8.119879
_cell_length_b                         11.643991
_cell_length_c                         8.276052
_cell_angle_alpha                      90.000000
_cell_angle_beta                       90.000000
_cell_angle_gamma                      90.000000
_cell_volume                           782.482547
_space_group_name_H-M_alt              'P 1'
_space_group_IT_number                 1

loop_
_space_group_symop_operation_xyz
   'x, y, z'

loop_
   _atom_site_label
   _atom_site_occupancy
   _atom_site_fract_x
   _atom_site_fract_y
   _atom_site_fract_z
   _atom_site_adp_type
   _atom_site_B_iso_or_equiv
   _atom_site_type_symbol
   Co1         1.0     0.500000     0.500000     0.500000    Biso  1.000000 Co
   Co2         1.0     0.000000     0.500000     0.000000    Biso  1.000000 Co
   Co3         1.0     0.500000     0.000000     0.500000    Biso  1.000000 Co
   Co4         1.0     0.000000     0.000000     0.000000    Biso  1.000000 Co
   N1          1.0     0.584439     0.750000     0.031483    Biso  1.000000 N
   N2          1.0     0.915561     0.250000     0.531483    Biso  1.000000 N
   N3          1.0     0.415561     0.250000     0.968517    Biso  1.000000 N
   N4          1.0     0.084439     0.750000     0.468517    Biso  1.000000 N
   C1          1.0     0.411491     0.750000     0.973444    Biso  1.000000 C
   C2          1.0     0.088509     0.250000     0.473444    Biso  1.000000 C
   C3          1.0     0.588509     0.250000     0.026556    Biso  1.000000 C
   C4          1.0     0.911491     0.750000     0.526556    Biso  1.000000 C
   C5          1.0     0.506633     0.750000     0.443467    Biso  1.000000 C
   C6          1.0     0.993367     0.250000     0.943467    Biso  1.000000 C
   C7          1.0     0.493367     0.250000     0.556533    Biso  1.000000 C
   C8          1.0     0.006633     0.750000     0.056533    Biso  1.000000 C
   C9          1.0     0.284629     0.470146     0.219258    Biso  1.000000 C
   C10         1.0     0.215371     0.529854     0.719258    Biso  1.000000 C
   C11         1.0     0.715371     0.970146     0.780742    Biso  1.000000 C
   C12         1.0     0.784629     0.029854     0.280742    Biso  1.000000 C
   C13         1.0     0.715371     0.529854     0.780742    Biso  1.000000 C
   C14         1.0     0.784629     0.470146     0.280742    Biso  1.000000 C
   C15         1.0     0.284629     0.029854     0.219258    Biso  1.000000 C
   C16         1.0     0.215371     0.970146     0.719258    Biso  1.000000 C
   H1          1.0     0.648098     0.676809     0.990299    Biso  1.000000 H
   H2          1.0     0.851902     0.323191     0.490299    Biso  1.000000 H
   H3          1.0     0.351902     0.176809     0.009701    Biso  1.000000 H
   H4          1.0     0.148098     0.823191     0.509701    Biso  1.000000 H
   H5          1.0     0.351902     0.323191     0.009701    Biso  1.000000 H
   H6          1.0     0.148098     0.676809     0.509701    Biso  1.000000 H
   H7          1.0     0.648098     0.823191     0.990299    Biso  1.000000 H
   H8          1.0     0.851902     0.176809     0.490299    Biso  1.000000 H
   H9          1.0     0.349152     0.673060     0.018172    Biso  1.000000 H
   H10         1.0     0.150848     0.326940     0.518172    Biso  1.000000 H
   H11         1.0     0.650848     0.173060     0.981828    Biso  1.000000 H
   H12         1.0     0.849152     0.826940     0.481828    Biso  1.000000 H
   H13         1.0     0.650848     0.326940     0.981828    Biso  1.000000 H
   H14         1.0     0.849152     0.673060     0.481828    Biso  1.000000 H
   H15         1.0     0.349152     0.826940     0.018172    Biso  1.000000 H
   H16         1.0     0.150848     0.173060     0.518172    Biso  1.000000 H
   H17         1.0     0.584948     0.750000     0.156529    Biso  1.000000 H
   H18         1.0     0.915052     0.250000     0.656529    Biso  1.000000 H
   H19         1.0     0.415051     0.250000     0.843471    Biso  1.000000 H
   H20         1.0     0.084949     0.750000     0.343471    Biso  1.000000 H
   H21         1.0     0.411578     0.750000     0.841582    Biso  1.000000 H
   H22         1.0     0.088422     0.250000     0.341582    Biso  1.000000 H
   H23         1.0     0.588422     0.250000     0.158418    Biso  1.000000 H
   H24         1.0     0.911578     0.750000     0.658418    Biso  1.000000 H
   H25         1.0     0.213533     0.537216     0.282413    Biso  1.000000 H
   H26         1.0     0.286467     0.462784     0.782413    Biso  1.000000 H
   H27         1.0     0.786467     0.037216     0.717587    Biso  1.000000 H
   H28         1.0     0.713533     0.962784     0.217587    Biso  1.000000 H
   H29         1.0     0.786467     0.462784     0.717587    Biso  1.000000 H
   H30         1.0     0.713533     0.537216     0.217587    Biso  1.000000 H
   H31         1.0     0.213533     0.962784     0.282413    Biso  1.000000 H
   H32         1.0     0.286467     0.037216     0.782413    Biso  1.000000 H
   H33         1.0     0.480501     0.750000     0.574428    Biso  1.000000 H
   H34         1.0     0.019499     0.250000     0.074428    Biso  1.000000 H
   H35         1.0     0.519499     0.250000     0.425572    Biso  1.000000 H
   H36         1.0     0.980501     0.750000     0.925572    Biso  1.000000 H
   O1          1.0     0.408687     0.426458     0.287993    Biso  1.000000 O
   O2          1.0     0.091313     0.573542     0.787993    Biso  1.000000 O
   O3          1.0     0.591313     0.926458     0.712007    Biso  1.000000 O
   O4          1.0     0.908687     0.073542     0.212007    Biso  1.000000 O
   O5          1.0     0.591313     0.573542     0.712007    Biso  1.000000 O
   O6          1.0     0.908687     0.426458     0.212007    Biso  1.000000 O
   O7          1.0     0.408687     0.073542     0.287993    Biso  1.000000 O
   O8          1.0     0.091313     0.926458     0.787993    Biso  1.000000 O
   O9          1.0     0.235150     0.440708     0.078455    Biso  1.000000 O
   O10         1.0     0.264850     0.559292     0.578455    Biso  1.000000 O
   O11         1.0     0.764850     0.940708     0.921545    Biso  1.000000 O
   O12         1.0     0.735150     0.059292     0.421545    Biso  1.000000 O
   O13         1.0     0.764850     0.559292     0.921545    Biso  1.000000 O
   O14         1.0     0.735150     0.440708     0.421545    Biso  1.000000 O
   O15         1.0     0.235150     0.059292     0.078455    Biso  1.000000 O
   O16         1.0     0.264850     0.940708     0.578455    Biso  1.000000 O
   O17         1.0     0.522070     0.654257     0.371226    Biso  1.000000 O
   O18         1.0     0.977930     0.345743     0.871226    Biso  1.000000 O
   O19         1.0     0.477930     0.154257     0.628774    Biso  1.000000 O
   O20         1.0     0.022070     0.845743     0.128774    Biso  1.000000 O
   O21         1.0     0.477930     0.345743     0.628774    Biso  1.000000 O
   O22         1.0     0.022070     0.654257     0.128774    Biso  1.000000 O
   O23         1.0     0.522070     0.845743     0.371226    Biso  1.000000 O
   O24         1.0     0.977930     0.154257     0.871226    Biso  1.000000 O
