
#======================================================================
# CRYSTAL DATA
#----------------------------------------------------------------------
data_VESTA_phase_1

_chemical_name_common                  'crystal                               '
_cell_length_a                         8.328333
_cell_length_b                         11.939142
_cell_length_c                         8.469072
_cell_angle_alpha                      90.000000
_cell_angle_beta                       90.000000
_cell_angle_gamma                      90.000000
_cell_volume                           842.106549
_space_group_name_H-M_alt              'P 1'
_space_group_IT_number                 1

loop_
_space_group_symop_operation_xyz
   'x, y, z'

loop_
   _atom_site_label
   _atom_site_occupancy
   _atom_site_fract_x
   _atom_site_fract_y
   _atom_site_fract_z
   _atom_site_adp_type
   _atom_site_B_iso_or_equiv
   _atom_site_type_symbol
   Mn1         1.0     0.000000     0.500000     0.000000    Biso  1.000000 Mn
   Mn2         1.0     0.500000     0.500000     0.500000    Biso  1.000000 Mn
   Mn3         1.0     0.000000     0.000000     0.000000    Biso  1.000000 Mn
   Mn4         1.0     0.500000     0.000000     0.500000    Biso  1.000000 Mn
   O1          1.0     0.093655     0.578991     0.215807    Biso  1.000000 O
   O2          1.0     0.406345     0.421009     0.715807    Biso  1.000000 O
   O3          1.0     0.906345     0.078991     0.784193    Biso  1.000000 O
   O4          1.0     0.593655     0.921009     0.284193    Biso  1.000000 O
   O5          1.0     0.906345     0.421009     0.784193    Biso  1.000000 O
   O6          1.0     0.593655     0.578991     0.284193    Biso  1.000000 O
   O7          1.0     0.093655     0.921009     0.215807    Biso  1.000000 O
   O8          1.0     0.406345     0.078991     0.715807    Biso  1.000000 O
   O9          1.0     0.258676     0.562802     0.424348    Biso  1.000000 O
   O10         1.0     0.241324     0.437198     0.924348    Biso  1.000000 O
   O11         1.0     0.741324     0.062802     0.575652    Biso  1.000000 O
   O12         1.0     0.758676     0.937198     0.075652    Biso  1.000000 O
   O13         1.0     0.741324     0.437198     0.575652    Biso  1.000000 O
   O14         1.0     0.758676     0.562802     0.075652    Biso  1.000000 O
   O15         1.0     0.258676     0.937198     0.424348    Biso  1.000000 O
   O16         1.0     0.241324     0.062802     0.924348    Biso  1.000000 O
   O17         1.0     0.972525     0.343661     0.136886    Biso  1.000000 O
   O18         1.0     0.527475     0.656339     0.636886    Biso  1.000000 O
   O19         1.0     0.027475     0.843661     0.863114    Biso  1.000000 O
   O20         1.0     0.472525     0.156339     0.363114    Biso  1.000000 O
   O21         1.0     0.027475     0.656339     0.863114    Biso  1.000000 O
   O22         1.0     0.472525     0.343661     0.363114    Biso  1.000000 O
   O23         1.0     0.972525     0.156339     0.136886    Biso  1.000000 O
   O24         1.0     0.527475     0.843661     0.636886    Biso  1.000000 O
   C1          1.0     0.211113     0.534838     0.286304    Biso  1.000000 C
   C2          1.0     0.288887     0.465162     0.786304    Biso  1.000000 C
   C3          1.0     0.788887     0.034838     0.713696    Biso  1.000000 C
   C4          1.0     0.711113     0.965162     0.213696    Biso  1.000000 C
   C5          1.0     0.788887     0.465162     0.713696    Biso  1.000000 C
   C6          1.0     0.711113     0.534838     0.213696    Biso  1.000000 C
   C7          1.0     0.211113     0.965162     0.286304    Biso  1.000000 C
   C8          1.0     0.288887     0.034838     0.786304    Biso  1.000000 C
   C9          1.0     0.986693     0.250000     0.067249    Biso  1.000000 C
   C10         1.0     0.513307     0.750000     0.567249    Biso  1.000000 C
   C11         1.0     0.013307     0.750000     0.932751    Biso  1.000000 C
   C12         1.0     0.486693     0.250000     0.432751    Biso  1.000000 C
   C13         1.0     0.913811     0.750000     0.471287    Biso  1.000000 C
   C14         1.0     0.586189     0.250000     0.971287    Biso  1.000000 C
   C15         1.0     0.086189     0.250000     0.528713    Biso  1.000000 C
   C16         1.0     0.413811     0.750000     0.028713    Biso  1.000000 C
   H1          1.0     0.278950     0.467380     0.226249    Biso  1.000000 H
   H2          1.0     0.221050     0.532620     0.726249    Biso  1.000000 H
   H3          1.0     0.721050     0.967380     0.773751    Biso  1.000000 H
   H4          1.0     0.778950     0.032620     0.273751    Biso  1.000000 H
   H5          1.0     0.721050     0.532620     0.773751    Biso  1.000000 H
   H6          1.0     0.778950     0.467380     0.273751    Biso  1.000000 H
   H7          1.0     0.278950     0.032620     0.226249    Biso  1.000000 H
   H8          1.0     0.221050     0.967380     0.726249    Biso  1.000000 H
   H9          1.0     0.011490     0.250000     0.938667    Biso  1.000000 H
   H10         1.0     0.488510     0.750000     0.438667    Biso  1.000000 H
   H11         1.0     0.988510     0.750000     0.061333    Biso  1.000000 H
   H12         1.0     0.511490     0.250000     0.561333    Biso  1.000000 H
   H13         1.0     0.082168     0.750000     0.651574    Biso  1.000000 H
   H14         1.0     0.417832     0.250000     0.151574    Biso  1.000000 H
   H15         1.0     0.917832     0.250000     0.348426    Biso  1.000000 H
   H16         1.0     0.582168     0.750000     0.848426    Biso  1.000000 H
   H17         1.0     0.144455     0.678612     0.489551    Biso  1.000000 H
   H18         1.0     0.355545     0.321388     0.989551    Biso  1.000000 H
   H19         1.0     0.855545     0.178612     0.510449    Biso  1.000000 H
   H20         1.0     0.644455     0.821388     0.010449    Biso  1.000000 H
   H21         1.0     0.855545     0.321388     0.510449    Biso  1.000000 H
   H22         1.0     0.644455     0.678612     0.010449    Biso  1.000000 H
   H23         1.0     0.144455     0.821388     0.489551    Biso  1.000000 H
   H24         1.0     0.355545     0.178612     0.989551    Biso  1.000000 H
   H25         1.0     0.914962     0.750000     0.342370    Biso  1.000000 H
   H26         1.0     0.585038     0.250000     0.842370    Biso  1.000000 H
   H27         1.0     0.085039     0.250000     0.657630    Biso  1.000000 H
   H28         1.0     0.414961     0.750000     0.157630    Biso  1.000000 H
   H29         1.0     0.852580     0.675003     0.514686    Biso  1.000000 H
   H30         1.0     0.647420     0.324997     0.014686    Biso  1.000000 H
   H31         1.0     0.147420     0.175003     0.485314    Biso  1.000000 H
   H32         1.0     0.352580     0.824997     0.985314    Biso  1.000000 H
   H33         1.0     0.147420     0.324997     0.485314    Biso  1.000000 H
   H34         1.0     0.352580     0.675003     0.985314    Biso  1.000000 H
   H35         1.0     0.852580     0.824997     0.514686    Biso  1.000000 H
   H36         1.0     0.647420     0.175003     0.014686    Biso  1.000000 H
   N1          1.0     0.082100     0.750000     0.529327    Biso  1.000000 N
   N2          1.0     0.417900     0.250000     0.029327    Biso  1.000000 N
   N3          1.0     0.917900     0.250000     0.470673    Biso  1.000000 N
   N4          1.0     0.582100     0.750000     0.970673    Biso  1.000000 N
