
#======================================================================
# CRYSTAL DATA
#----------------------------------------------------------------------
data_VESTA_phase_1

_chemical_name_common                  'crystal                               '
_cell_length_a                         8.274718
_cell_length_b                         11.663168
_cell_length_c                         8.991138
_cell_angle_alpha                      90.000000
_cell_angle_beta                       90.000000
_cell_angle_gamma                      90.000000
_cell_volume                           867.729640
_space_group_name_H-M_alt              'P 1'
_space_group_IT_number                 1

loop_
_space_group_symop_operation_xyz
   'x, y, z'

loop_
   _atom_site_label
   _atom_site_occupancy
   _atom_site_fract_x
   _atom_site_fract_y
   _atom_site_fract_z
   _atom_site_adp_type
   _atom_site_B_iso_or_equiv
   _atom_site_type_symbol
   Zn1         1.0     0.231664     0.250000     0.250000    Biso  1.000000 Zn
   Zn2         1.0     0.268336     0.750000     0.250000    Biso  1.000000 Zn
   Zn3         1.0     0.768336     0.750000     0.750000    Biso  1.000000 Zn
   Zn4         1.0     0.731664     0.250000     0.750000    Biso  1.000000 Zn
   O1          1.0     0.769272     0.904802     0.873966    Biso  1.000000 O
   O2          1.0     0.769272     0.595198     0.626034    Biso  1.000000 O
   O3          1.0     0.730728     0.404802     0.626034    Biso  1.000000 O
   O4          1.0     0.730728     0.095198     0.873966    Biso  1.000000 O
   O5          1.0     0.230728     0.095198     0.126034    Biso  1.000000 O
   O6          1.0     0.230728     0.404802     0.373966    Biso  1.000000 O
   O7          1.0     0.269272     0.595198     0.373966    Biso  1.000000 O
   O8          1.0     0.269272     0.904802     0.126034    Biso  1.000000 O
   O9          1.0     0.915466     0.675003     0.914159    Biso  1.000000 O
   O10         1.0     0.915466     0.824997     0.585841    Biso  1.000000 O
   O11         1.0     0.584534     0.175003     0.585841    Biso  1.000000 O
   O12         1.0     0.584534     0.324997     0.914159    Biso  1.000000 O
   O13         1.0     0.084534     0.324997     0.085841    Biso  1.000000 O
   O14         1.0     0.084534     0.175003     0.414159    Biso  1.000000 O
   O15         1.0     0.415466     0.824997     0.414159    Biso  1.000000 O
   O16         1.0     0.415466     0.675003     0.085841    Biso  1.000000 O
   O17         1.0     0.070559     0.689378     0.116466    Biso  1.000000 O
   O18         1.0     0.070559     0.810622     0.383534    Biso  1.000000 O
   O19         1.0     0.429441     0.189378     0.383534    Biso  1.000000 O
   O20         1.0     0.429441     0.310622     0.116466    Biso  1.000000 O
   O21         1.0     0.929441     0.310622     0.883534    Biso  1.000000 O
   O22         1.0     0.929441     0.189378     0.616466    Biso  1.000000 O
   O23         1.0     0.570559     0.810622     0.616466    Biso  1.000000 O
   O24         1.0     0.570559     0.689378     0.883534    Biso  1.000000 O
   C1          1.0     0.250000     0.000000     0.192323    Biso  1.000000 C
   C2          1.0     0.250000     0.500000     0.307677    Biso  1.000000 C
   C3          1.0     0.750000     0.000000     0.807677    Biso  1.000000 C
   C4          1.0     0.750000     0.500000     0.692323    Biso  1.000000 C
   C5          1.0     0.034607     0.717477     0.984319    Biso  1.000000 C
   C6          1.0     0.034607     0.782523     0.515681    Biso  1.000000 C
   C7          1.0     0.465393     0.217477     0.515681    Biso  1.000000 C
   C8          1.0     0.465393     0.282523     0.984319    Biso  1.000000 C
   C9          1.0     0.965393     0.282523     0.015681    Biso  1.000000 C
   C10         1.0     0.965393     0.217477     0.484319    Biso  1.000000 C
   C11         1.0     0.534607     0.782523     0.484319    Biso  1.000000 C
   C12         1.0     0.534607     0.717477     0.015681    Biso  1.000000 C
   C13         1.0     0.250000     0.000000     0.738982    Biso  1.000000 C
   C14         1.0     0.250000     0.500000     0.761018    Biso  1.000000 C
   C15         1.0     0.750000     0.000000     0.261018    Biso  1.000000 C
   C16         1.0     0.750000     0.500000     0.238982    Biso  1.000000 C
   H1          1.0     0.250000     0.000000     0.314489    Biso  1.000000 H
   H2          1.0     0.250000     0.500000     0.185511    Biso  1.000000 H
   H3          1.0     0.750000     0.000000     0.685511    Biso  1.000000 H
   H4          1.0     0.750000     0.500000     0.814489    Biso  1.000000 H
   H5          1.0     0.110240     0.782401     0.927499    Biso  1.000000 H
   H6          1.0     0.110240     0.717599     0.572501    Biso  1.000000 H
   H7          1.0     0.389760     0.282401     0.572501    Biso  1.000000 H
   H8          1.0     0.389760     0.217599     0.927499    Biso  1.000000 H
   H9          1.0     0.889760     0.217599     0.072501    Biso  1.000000 H
   H10         1.0     0.889760     0.282401     0.427499    Biso  1.000000 H
   H11         1.0     0.610240     0.717599     0.427499    Biso  1.000000 H
   H12         1.0     0.610240     0.782401     0.072501    Biso  1.000000 H
   H13         1.0     0.832328     0.918531     0.073771    Biso  1.000000 H
   H14         1.0     0.832328     0.581469     0.426229    Biso  1.000000 H
   H15         1.0     0.667672     0.418531     0.426229    Biso  1.000000 H
   H16         1.0     0.667672     0.081469     0.073771    Biso  1.000000 H
   H17         1.0     0.167672     0.081469     0.926229    Biso  1.000000 H
   H18         1.0     0.167672     0.418531     0.573771    Biso  1.000000 H
   H19         1.0     0.332328     0.581469     0.573771    Biso  1.000000 H
   H20         1.0     0.332328     0.918531     0.926229    Biso  1.000000 H
   H21         1.0     0.926018     0.877923     0.245342    Biso  1.000000 H
   H22         1.0     0.926018     0.622077     0.254658    Biso  1.000000 H
   H23         1.0     0.573982     0.377923     0.254658    Biso  1.000000 H
   H24         1.0     0.573982     0.122077     0.245342    Biso  1.000000 H
   H25         1.0     0.073982     0.122077     0.754658    Biso  1.000000 H
   H26         1.0     0.073982     0.377923     0.745342    Biso  1.000000 H
   H27         1.0     0.426018     0.622077     0.745342    Biso  1.000000 H
   H28         1.0     0.426018     0.877923     0.754658    Biso  1.000000 H
   H29         1.0     0.814425     0.939196     0.466899    Biso  1.000000 H
   H30         1.0     0.814425     0.560804     0.033101    Biso  1.000000 H
   H31         1.0     0.685575     0.439196     0.033101    Biso  1.000000 H
   H32         1.0     0.685575     0.060804     0.466899    Biso  1.000000 H
   H33         1.0     0.185575     0.060804     0.533101    Biso  1.000000 H
   H34         1.0     0.185575     0.439196     0.966899    Biso  1.000000 H
   H35         1.0     0.314425     0.560804     0.966899    Biso  1.000000 H
   H36         1.0     0.314425     0.939196     0.533101    Biso  1.000000 H
   N1          1.0     0.844191     0.926062     0.186873    Biso  1.000000 N
   N2          1.0     0.844191     0.573938     0.313127    Biso  1.000000 N
   N3          1.0     0.655809     0.426062     0.313127    Biso  1.000000 N
   N4          1.0     0.655809     0.073938     0.186873    Biso  1.000000 N
   N5          1.0     0.155809     0.073938     0.813127    Biso  1.000000 N
   N6          1.0     0.155809     0.426062     0.686873    Biso  1.000000 N
   N7          1.0     0.344191     0.573938     0.686873    Biso  1.000000 N
   N8          1.0     0.344191     0.926062     0.813127    Biso  1.000000 N
   N9          1.0     0.250000     0.000000     0.590625    Biso  1.000000 N
   N10         1.0     0.250000     0.500000     0.909375    Biso  1.000000 N
   N11         1.0     0.750000     0.000000     0.409375    Biso  1.000000 N
   N12         1.0     0.750000     0.500000     0.090625    Biso  1.000000 N
