
#======================================================================
# CRYSTAL DATA
#----------------------------------------------------------------------
data_VESTA_phase_1

_chemical_name_common                  'crystal                               '
_cell_length_a                         7.653215
_cell_length_b                         7.829393
_cell_length_c                         13.110568
_cell_angle_alpha                      90.000000
_cell_angle_beta                       90.000000
_cell_angle_gamma                      90.000000
_cell_volume                           785.585684
_space_group_name_H-M_alt              'P 1'
_space_group_IT_number                 1

loop_
_space_group_symop_operation_xyz
   'x, y, z'

loop_
   _atom_site_label
   _atom_site_occupancy
   _atom_site_fract_x
   _atom_site_fract_y
   _atom_site_fract_z
   _atom_site_adp_type
   _atom_site_B_iso_or_equiv
   _atom_site_type_symbol
   Co1         1.0     0.546719     0.494831     0.086526    Biso  1.000000 Co
   Co2         1.0     0.953281     0.505169     0.586526    Biso  1.000000 Co
   Co3         1.0     0.453281     0.994831     0.413474    Biso  1.000000 Co
   Co4         1.0     0.046719     0.005169     0.913474    Biso  1.000000 Co
   C1          1.0     0.423971     0.222168     0.237690    Biso  1.000000 C
   C2          1.0     0.076029     0.777832     0.737690    Biso  1.000000 C
   C3          1.0     0.576029     0.722168     0.262310    Biso  1.000000 C
   C4          1.0     0.923971     0.277832     0.762310    Biso  1.000000 C
   C5          1.0     0.286266     0.761380     0.023840    Biso  1.000000 C
   C6          1.0     0.213734     0.238620     0.523840    Biso  1.000000 C
   C7          1.0     0.713734     0.261380     0.476160    Biso  1.000000 C
   C8          1.0     0.786266     0.738620     0.976160    Biso  1.000000 C
   C9          1.0     0.304073     0.271150     0.968029    Biso  1.000000 C
   C10         1.0     0.195927     0.728850     0.468029    Biso  1.000000 C
   C11         1.0     0.695927     0.771150     0.531971    Biso  1.000000 C
   C12         1.0     0.804073     0.228850     0.031971    Biso  1.000000 C
   H1          1.0     0.553757     0.167611     0.221404    Biso  1.000000 H
   H2          1.0     0.946243     0.832389     0.721404    Biso  1.000000 H
   H3          1.0     0.446243     0.667611     0.278596    Biso  1.000000 H
   H4          1.0     0.053757     0.332389     0.778596    Biso  1.000000 H
   H5          1.0     0.339445     0.742869     0.946287    Biso  1.000000 H
   H6          1.0     0.160555     0.257131     0.446287    Biso  1.000000 H
   H7          1.0     0.660555     0.242869     0.553713    Biso  1.000000 H
   H8          1.0     0.839445     0.757131     0.053713    Biso  1.000000 H
   H9          1.0     0.221230     0.275503     0.037017    Biso  1.000000 H
   H10         1.0     0.278770     0.724497     0.537017    Biso  1.000000 H
   H11         1.0     0.778770     0.775503     0.462983    Biso  1.000000 H
   H12         1.0     0.721230     0.224497     0.962983    Biso  1.000000 H
   H13         1.0     0.201008     0.446948     0.217373    Biso  1.000000 H
   H14         1.0     0.298992     0.553052     0.717373    Biso  1.000000 H
   H15         1.0     0.798992     0.946948     0.282627    Biso  1.000000 H
   H16         1.0     0.701008     0.053052     0.782627    Biso  1.000000 H
   H17         1.0     0.062408     0.244229     0.274749    Biso  1.000000 H
   H18         1.0     0.437592     0.755771     0.774749    Biso  1.000000 H
   H19         1.0     0.937592     0.744229     0.225251    Biso  1.000000 H
   H20         1.0     0.562408     0.255771     0.725251    Biso  1.000000 H
   H21         1.0     0.887438     0.326007     0.209310    Biso  1.000000 H
   H22         1.0     0.612562     0.673993     0.709310    Biso  1.000000 H
   H23         1.0     0.112562     0.826007     0.290690    Biso  1.000000 H
   H24         1.0     0.387438     0.173993     0.790690    Biso  1.000000 H
   H25         1.0     0.922326     0.375113     0.337750    Biso  1.000000 H
   H26         1.0     0.577674     0.624887     0.837750    Biso  1.000000 H
   H27         1.0     0.077674     0.875113     0.162250    Biso  1.000000 H
   H28         1.0     0.422326     0.124887     0.662250    Biso  1.000000 H
   O1          1.0     0.385991     0.363039     0.193745    Biso  1.000000 O
   O2          1.0     0.114009     0.636961     0.693745    Biso  1.000000 O
   O3          1.0     0.614009     0.863039     0.306255    Biso  1.000000 O
   O4          1.0     0.885991     0.136961     0.806255    Biso  1.000000 O
   O5          1.0     0.321725     0.144255     0.297625    Biso  1.000000 O
   O6          1.0     0.178275     0.855745     0.797625    Biso  1.000000 O
   O7          1.0     0.678275     0.644255     0.202375    Biso  1.000000 O
   O8          1.0     0.821725     0.355745     0.702375    Biso  1.000000 O
   O9          1.0     0.344150     0.671157     0.096063    Biso  1.000000 O
   O10         1.0     0.155850     0.328843     0.596063    Biso  1.000000 O
   O11         1.0     0.655850     0.171157     0.403937    Biso  1.000000 O
   O12         1.0     0.844150     0.828843     0.903937    Biso  1.000000 O
   O13         1.0     0.167627     0.874000     0.034974    Biso  1.000000 O
   O14         1.0     0.332373     0.126000     0.534974    Biso  1.000000 O
   O15         1.0     0.832373     0.374000     0.465026    Biso  1.000000 O
   O16         1.0     0.667627     0.626000     0.965026    Biso  1.000000 O
   O17         1.0     0.442920     0.357134     0.964462    Biso  1.000000 O
   O18         1.0     0.057080     0.642866     0.464462    Biso  1.000000 O
   O19         1.0     0.557080     0.857134     0.535538    Biso  1.000000 O
   O20         1.0     0.942920     0.142866     0.035538    Biso  1.000000 O
   O21         1.0     0.251257     0.176471     0.894622    Biso  1.000000 O
   O22         1.0     0.248743     0.823529     0.394622    Biso  1.000000 O
   O23         1.0     0.748743     0.676471     0.605378    Biso  1.000000 O
   O24         1.0     0.751257     0.323529     0.105378    Biso  1.000000 O
   O25         1.0     0.080802     0.494191     0.235741    Biso  1.000000 O
   O26         1.0     0.419198     0.505809     0.735741    Biso  1.000000 O
   O27         1.0     0.919198     0.994191     0.264259    Biso  1.000000 O
   O28         1.0     0.580802     0.005809     0.764259    Biso  1.000000 O
   N1          1.0     0.981694     0.350053     0.266733    Biso  1.000000 N
   N2          1.0     0.518306     0.649947     0.766733    Biso  1.000000 N
   N3          1.0     0.018306     0.850053     0.233267    Biso  1.000000 N
   N4          1.0     0.481694     0.149947     0.733267    Biso  1.000000 N
