
#======================================================================
# CRYSTAL DATA
#----------------------------------------------------------------------
data_VESTA_phase_1

_chemical_name_common                  'crystal                               '
_cell_length_a                         7.700966
_cell_length_b                         7.988904
_cell_length_c                         12.970891
_cell_angle_alpha                      90.000000
_cell_angle_beta                       90.000000
_cell_angle_gamma                      90.000000
_cell_volume                           797.998800
_space_group_name_H-M_alt              'P 1'
_space_group_IT_number                 1

loop_
_space_group_symop_operation_xyz
   'x, y, z'

loop_
   _atom_site_label
   _atom_site_occupancy
   _atom_site_fract_x
   _atom_site_fract_y
   _atom_site_fract_z
   _atom_site_adp_type
   _atom_site_B_iso_or_equiv
   _atom_site_type_symbol
   Fe1         1.0     0.563237     0.491697     0.085960    Biso  1.000000 Fe
   Fe2         1.0     0.936763     0.508303     0.585960    Biso  1.000000 Fe
   Fe3         1.0     0.436763     0.991697     0.414040    Biso  1.000000 Fe
   Fe4         1.0     0.063237     0.008303     0.914040    Biso  1.000000 Fe
   C1          1.0     0.413684     0.220113     0.235388    Biso  1.000000 C
   C2          1.0     0.086316     0.779887     0.735388    Biso  1.000000 C
   C3          1.0     0.586316     0.720113     0.264612    Biso  1.000000 C
   C4          1.0     0.913684     0.279887     0.764612    Biso  1.000000 C
   C5          1.0     0.322467     0.786914     0.029105    Biso  1.000000 C
   C6          1.0     0.177533     0.213086     0.529105    Biso  1.000000 C
   C7          1.0     0.677533     0.286914     0.470895    Biso  1.000000 C
   C8          1.0     0.822467     0.713086     0.970895    Biso  1.000000 C
   C9          1.0     0.312354     0.283579     0.959497    Biso  1.000000 C
   C10         1.0     0.187646     0.716421     0.459497    Biso  1.000000 C
   C11         1.0     0.687646     0.783579     0.540503    Biso  1.000000 C
   C12         1.0     0.812354     0.216421     0.040503    Biso  1.000000 C
   H1          1.0     0.537627     0.156421     0.218351    Biso  1.000000 H
   H2          1.0     0.962373     0.843579     0.718351    Biso  1.000000 H
   H3          1.0     0.462373     0.656421     0.281649    Biso  1.000000 H
   H4          1.0     0.037627     0.343579     0.781649    Biso  1.000000 H
   H5          1.0     0.411602     0.815283     0.964271    Biso  1.000000 H
   H6          1.0     0.088398     0.184717     0.464271    Biso  1.000000 H
   H7          1.0     0.588398     0.315283     0.535729    Biso  1.000000 H
   H8          1.0     0.911602     0.684717     0.035729    Biso  1.000000 H
   H9          1.0     0.222734     0.305898     0.024747    Biso  1.000000 H
   H10         1.0     0.277266     0.694102     0.524747    Biso  1.000000 H
   H11         1.0     0.777266     0.805898     0.475253    Biso  1.000000 H
   H12         1.0     0.722734     0.194102     0.975253    Biso  1.000000 H
   H13         1.0     0.205808     0.456470     0.215347    Biso  1.000000 H
   H14         1.0     0.294192     0.543530     0.715347    Biso  1.000000 H
   H15         1.0     0.794192     0.956470     0.284653    Biso  1.000000 H
   H16         1.0     0.705808     0.043530     0.784653    Biso  1.000000 H
   H17         1.0     0.085061     0.258003     0.281025    Biso  1.000000 H
   H18         1.0     0.414939     0.741997     0.781025    Biso  1.000000 H
   H19         1.0     0.914939     0.758003     0.218975    Biso  1.000000 H
   H20         1.0     0.585061     0.241997     0.718975    Biso  1.000000 H
   H21         1.0     0.904144     0.323104     0.212766    Biso  1.000000 H
   H22         1.0     0.595856     0.676896     0.712766    Biso  1.000000 H
   H23         1.0     0.095856     0.823104     0.287234    Biso  1.000000 H
   H24         1.0     0.404144     0.176896     0.787234    Biso  1.000000 H
   H25         1.0     0.933438     0.381745     0.339740    Biso  1.000000 H
   H26         1.0     0.566562     0.618255     0.839740    Biso  1.000000 H
   H27         1.0     0.066562     0.881745     0.160260    Biso  1.000000 H
   H28         1.0     0.433438     0.118255     0.660260    Biso  1.000000 H
   O1          1.0     0.389684     0.362859     0.193844    Biso  1.000000 O
   O2          1.0     0.110316     0.637141     0.693844    Biso  1.000000 O
   O3          1.0     0.610316     0.862859     0.306156    Biso  1.000000 O
   O4          1.0     0.889684     0.137141     0.806156    Biso  1.000000 O
   O5          1.0     0.305341     0.148811     0.294515    Biso  1.000000 O
   O6          1.0     0.194659     0.851189     0.794515    Biso  1.000000 O
   O7          1.0     0.694659     0.648811     0.205485    Biso  1.000000 O
   O8          1.0     0.805341     0.351189     0.705485    Biso  1.000000 O
   O9          1.0     0.360638     0.669252     0.089829    Biso  1.000000 O
   O10         1.0     0.139362     0.330748     0.589829    Biso  1.000000 O
   O11         1.0     0.639362     0.169252     0.410171    Biso  1.000000 O
   O12         1.0     0.860638     0.830748     0.910171    Biso  1.000000 O
   O13         1.0     0.187397     0.877625     0.038074    Biso  1.000000 O
   O14         1.0     0.312603     0.122375     0.538074    Biso  1.000000 O
   O15         1.0     0.812603     0.377625     0.461926    Biso  1.000000 O
   O16         1.0     0.687397     0.622375     0.961926    Biso  1.000000 O
   O17         1.0     0.459445     0.351450     0.958823    Biso  1.000000 O
   O18         1.0     0.040555     0.648550     0.458823    Biso  1.000000 O
   O19         1.0     0.540555     0.851450     0.541177    Biso  1.000000 O
   O20         1.0     0.959445     0.148550     0.041177    Biso  1.000000 O
   O21         1.0     0.258118     0.186794     0.887455    Biso  1.000000 O
   O22         1.0     0.241882     0.813206     0.387455    Biso  1.000000 O
   O23         1.0     0.741882     0.686794     0.612545    Biso  1.000000 O
   O24         1.0     0.758118     0.313206     0.112545    Biso  1.000000 O
   O25         1.0     0.086294     0.500098     0.234679    Biso  1.000000 O
   O26         1.0     0.413706     0.499902     0.734679    Biso  1.000000 O
   O27         1.0     0.913706     0.000098     0.265321    Biso  1.000000 O
   O28         1.0     0.586294     0.999902     0.765321    Biso  1.000000 O
   N1          1.0     0.996232     0.355537     0.269785    Biso  1.000000 N
   N2          1.0     0.503768     0.644463     0.769785    Biso  1.000000 N
   N3          1.0     0.003768     0.855537     0.230215    Biso  1.000000 N
   N4          1.0     0.496232     0.144463     0.730215    Biso  1.000000 N
