
#======================================================================
# CRYSTAL DATA
#----------------------------------------------------------------------
data_VESTA_phase_1

_chemical_name_common                  'crystal                               '
_cell_length_a                         7.666588
_cell_length_b                         7.892229
_cell_length_c                         12.729692
_cell_angle_alpha                      90.000000
_cell_angle_beta                       90.000000
_cell_angle_gamma                      90.000000
_cell_volume                           770.228712
_space_group_name_H-M_alt              'P 1'
_space_group_IT_number                 1

loop_
_space_group_symop_operation_xyz
   'x, y, z'

loop_
   _atom_site_label
   _atom_site_occupancy
   _atom_site_fract_x
   _atom_site_fract_y
   _atom_site_fract_z
   _atom_site_adp_type
   _atom_site_B_iso_or_equiv
   _atom_site_type_symbol
   Mg1         1.0     0.060248     0.993193     0.585547    Biso  1.000000 Mg
   Mg2         1.0     0.560248     0.506807     0.414453    Biso  1.000000 Mg
   Mg3         1.0     0.939752     0.493193     0.914453    Biso  1.000000 Mg
   Mg4         1.0     0.439752     0.006807     0.085547    Biso  1.000000 Mg
   C1          1.0     0.923412     0.721661     0.735120    Biso  1.000000 C
   C2          1.0     0.423412     0.778339     0.264880    Biso  1.000000 C
   C3          1.0     0.076588     0.221661     0.764880    Biso  1.000000 C
   C4          1.0     0.576588     0.278339     0.235120    Biso  1.000000 C
   C5          1.0     0.822793     0.290601     0.527968    Biso  1.000000 C
   C6          1.0     0.322793     0.209399     0.472032    Biso  1.000000 C
   C7          1.0     0.177207     0.790601     0.972032    Biso  1.000000 C
   C8          1.0     0.677207     0.709399     0.027968    Biso  1.000000 C
   C9          1.0     0.808245     0.784265     0.461999    Biso  1.000000 C
   C10         1.0     0.308245     0.715735     0.538001    Biso  1.000000 C
   C11         1.0     0.191755     0.284265     0.038001    Biso  1.000000 C
   C12         1.0     0.691755     0.215735     0.961999    Biso  1.000000 C
   H1          1.0     0.049005     0.660201     0.716554    Biso  1.000000 H
   H2          1.0     0.549005     0.839799     0.283446    Biso  1.000000 H
   H3          1.0     0.950995     0.160201     0.783446    Biso  1.000000 H
   H4          1.0     0.450995     0.339799     0.216554    Biso  1.000000 H
   H5          1.0     0.917257     0.326309     0.465675    Biso  1.000000 H
   H6          1.0     0.417257     0.173691     0.534325    Biso  1.000000 H
   H7          1.0     0.082743     0.826309     0.034325    Biso  1.000000 H
   H8          1.0     0.582743     0.673691     0.965675    Biso  1.000000 H
   H9          1.0     0.712198     0.814427     0.524177    Biso  1.000000 H
   H10         1.0     0.212198     0.685573     0.475823    Biso  1.000000 H
   H11         1.0     0.287802     0.314427     0.975823    Biso  1.000000 H
   H12         1.0     0.787802     0.185573     0.024177    Biso  1.000000 H
   H13         1.0     0.709652     0.956279     0.715845    Biso  1.000000 H
   H14         1.0     0.209652     0.543721     0.284155    Biso  1.000000 H
   H15         1.0     0.290348     0.456279     0.784155    Biso  1.000000 H
   H16         1.0     0.790348     0.043721     0.215845    Biso  1.000000 H
   H17         1.0     0.585034     0.753389     0.779554    Biso  1.000000 H
   H18         1.0     0.085034     0.746611     0.220446    Biso  1.000000 H
   H19         1.0     0.414966     0.253389     0.720446    Biso  1.000000 H
   H20         1.0     0.914966     0.246611     0.279554    Biso  1.000000 H
   H21         1.0     0.405076     0.824829     0.710282    Biso  1.000000 H
   H22         1.0     0.905076     0.675171     0.289718    Biso  1.000000 H
   H23         1.0     0.594924     0.324829     0.789718    Biso  1.000000 H
   H24         1.0     0.094924     0.175171     0.210282    Biso  1.000000 H
   H25         1.0     0.434765     0.877256     0.841421    Biso  1.000000 H
   H26         1.0     0.934765     0.622744     0.158579    Biso  1.000000 H
   H27         1.0     0.565235     0.377256     0.658579    Biso  1.000000 H
   H28         1.0     0.065235     0.122744     0.341421    Biso  1.000000 H
   O1          1.0     0.895336     0.865429     0.692633    Biso  1.000000 O
   O2          1.0     0.395336     0.634571     0.307367    Biso  1.000000 O
   O3          1.0     0.104664     0.365429     0.807367    Biso  1.000000 O
   O4          1.0     0.604664     0.134571     0.192633    Biso  1.000000 O
   O5          1.0     0.818242     0.646958     0.796328    Biso  1.000000 O
   O6          1.0     0.318242     0.853042     0.203672    Biso  1.000000 O
   O7          1.0     0.181758     0.146958     0.703672    Biso  1.000000 O
   O8          1.0     0.681758     0.353042     0.296328    Biso  1.000000 O
   O9          1.0     0.859000     0.167832     0.587108    Biso  1.000000 O
   O10         1.0     0.359000     0.332168     0.412892    Biso  1.000000 O
   O11         1.0     0.141000     0.667832     0.912892    Biso  1.000000 O
   O12         1.0     0.641000     0.832168     0.087108    Biso  1.000000 O
   O13         1.0     0.684357     0.379290     0.534880    Biso  1.000000 O
   O14         1.0     0.184357     0.120710     0.465120    Biso  1.000000 O
   O15         1.0     0.315643     0.879290     0.965120    Biso  1.000000 O
   O16         1.0     0.815643     0.620710     0.034880    Biso  1.000000 O
   O17         1.0     0.956460     0.852128     0.464504    Biso  1.000000 O
   O18         1.0     0.456460     0.647872     0.535496    Biso  1.000000 O
   O19         1.0     0.043540     0.352128     0.035496    Biso  1.000000 O
   O20         1.0     0.543540     0.147872     0.964504    Biso  1.000000 O
   O21         1.0     0.759323     0.679405     0.391191    Biso  1.000000 O
   O22         1.0     0.259323     0.820595     0.608809    Biso  1.000000 O
   O23         1.0     0.240677     0.179405     0.108809    Biso  1.000000 O
   O24         1.0     0.740677     0.320595     0.891191    Biso  1.000000 O
   O25         1.0     0.590050     0.000389     0.736760    Biso  1.000000 O
   O26         1.0     0.090050     0.499611     0.263240    Biso  1.000000 O
   O27         1.0     0.409950     0.500389     0.763240    Biso  1.000000 O
   O28         1.0     0.909950     0.999611     0.236760    Biso  1.000000 O
   N1          1.0     0.497675     0.853432     0.769512    Biso  1.000000 N
   N2          1.0     0.997675     0.646568     0.230488    Biso  1.000000 N
   N3          1.0     0.502325     0.353432     0.730488    Biso  1.000000 N
   N4          1.0     0.002325     0.146568     0.269512    Biso  1.000000 N
