
#======================================================================
# CRYSTAL DATA
#----------------------------------------------------------------------
data_VESTA_phase_1

_chemical_name_common                  'crystal                               '
_cell_length_a                         7.820803
_cell_length_b                         8.086611
_cell_length_c                         13.054698
_cell_angle_alpha                      90.000000
_cell_angle_beta                       90.000000
_cell_angle_gamma                      90.000000
_cell_volume                           825.628545
_space_group_name_H-M_alt              'P 1'
_space_group_IT_number                 1

loop_
_space_group_symop_operation_xyz
   'x, y, z'

loop_
   _atom_site_label
   _atom_site_occupancy
   _atom_site_fract_x
   _atom_site_fract_y
   _atom_site_fract_z
   _atom_site_adp_type
   _atom_site_B_iso_or_equiv
   _atom_site_type_symbol
   Mn1         1.0     0.561496     0.492307     0.087303    Biso  1.000000 Mn
   Mn2         1.0     0.938504     0.507693     0.587303    Biso  1.000000 Mn
   Mn3         1.0     0.438504     0.992307     0.412697    Biso  1.000000 Mn
   Mn4         1.0     0.061496     0.007693     0.912697    Biso  1.000000 Mn
   C1          1.0     0.408274     0.221867     0.233920    Biso  1.000000 C
   C2          1.0     0.091726     0.778134     0.733920    Biso  1.000000 C
   C3          1.0     0.591726     0.721866     0.266080    Biso  1.000000 C
   C4          1.0     0.908274     0.278133     0.766080    Biso  1.000000 C
   C5          1.0     0.319050     0.789034     0.033369    Biso  1.000000 C
   C6          1.0     0.180950     0.210966     0.533369    Biso  1.000000 C
   C7          1.0     0.680950     0.289034     0.466631    Biso  1.000000 C
   C8          1.0     0.819050     0.710966     0.966631    Biso  1.000000 C
   C9          1.0     0.310968     0.287325     0.956813    Biso  1.000000 C
   C10         1.0     0.189032     0.712675     0.456813    Biso  1.000000 C
   C11         1.0     0.689032     0.787325     0.543187    Biso  1.000000 C
   C12         1.0     0.810968     0.212675     0.043187    Biso  1.000000 C
   H1          1.0     0.531464     0.161760     0.215613    Biso  1.000000 H
   H2          1.0     0.968536     0.838240     0.715613    Biso  1.000000 H
   H3          1.0     0.468536     0.661760     0.284387    Biso  1.000000 H
   H4          1.0     0.031464     0.338240     0.784387    Biso  1.000000 H
   H5          1.0     0.406880     0.813725     0.968284    Biso  1.000000 H
   H6          1.0     0.093120     0.186275     0.468284    Biso  1.000000 H
   H7          1.0     0.593120     0.313725     0.531716    Biso  1.000000 H
   H8          1.0     0.906880     0.686275     0.031716    Biso  1.000000 H
   H9          1.0     0.218360     0.314787     0.018778    Biso  1.000000 H
   H10         1.0     0.281640     0.685213     0.518778    Biso  1.000000 H
   H11         1.0     0.781640     0.814787     0.481222    Biso  1.000000 H
   H12         1.0     0.718360     0.185213     0.981222    Biso  1.000000 H
   H13         1.0     0.199751     0.452927     0.217217    Biso  1.000000 H
   H14         1.0     0.300249     0.547073     0.717217    Biso  1.000000 H
   H15         1.0     0.800249     0.952927     0.282783    Biso  1.000000 H
   H16         1.0     0.699751     0.047073     0.782783    Biso  1.000000 H
   H17         1.0     0.080370     0.254348     0.280252    Biso  1.000000 H
   H18         1.0     0.419630     0.745652     0.780253    Biso  1.000000 H
   H19         1.0     0.919630     0.754348     0.219748    Biso  1.000000 H
   H20         1.0     0.580370     0.245652     0.719747    Biso  1.000000 H
   H21         1.0     0.903246     0.320743     0.212358    Biso  1.000000 H
   H22         1.0     0.596754     0.679257     0.712358    Biso  1.000000 H
   H23         1.0     0.096754     0.820743     0.287642    Biso  1.000000 H
   H24         1.0     0.403246     0.179257     0.787642    Biso  1.000000 H
   H25         1.0     0.930744     0.374905     0.339697    Biso  1.000000 H
   H26         1.0     0.569256     0.625095     0.839697    Biso  1.000000 H
   H27         1.0     0.069256     0.874905     0.160303    Biso  1.000000 H
   H28         1.0     0.430744     0.125095     0.660303    Biso  1.000000 H
   O1          1.0     0.380807     0.362745     0.193179    Biso  1.000000 O
   O2          1.0     0.119192     0.637255     0.693179    Biso  1.000000 O
   O3          1.0     0.619192     0.862745     0.306821    Biso  1.000000 O
   O4          1.0     0.880808     0.137255     0.806821    Biso  1.000000 O
   O5          1.0     0.304592     0.148846     0.293278    Biso  1.000000 O
   O6          1.0     0.195408     0.851154     0.793278    Biso  1.000000 O
   O7          1.0     0.695408     0.648846     0.206722    Biso  1.000000 O
   O8          1.0     0.804592     0.351154     0.706722    Biso  1.000000 O
   O9          1.0     0.356385     0.675699     0.095614    Biso  1.000000 O
   O10         1.0     0.143615     0.324301     0.595614    Biso  1.000000 O
   O11         1.0     0.643615     0.175699     0.404386    Biso  1.000000 O
   O12         1.0     0.856385     0.824301     0.904386    Biso  1.000000 O
   O13         1.0     0.186174     0.879729     0.040267    Biso  1.000000 O
   O14         1.0     0.313826     0.120271     0.540267    Biso  1.000000 O
   O15         1.0     0.813826     0.379729     0.459733    Biso  1.000000 O
   O16         1.0     0.686174     0.620271     0.959733    Biso  1.000000 O
   O17         1.0     0.458015     0.349901     0.959922    Biso  1.000000 O
   O18         1.0     0.041985     0.650099     0.459922    Biso  1.000000 O
   O19         1.0     0.541985     0.849901     0.540078    Biso  1.000000 O
   O20         1.0     0.958015     0.150099     0.040078    Biso  1.000000 O
   O21         1.0     0.259863     0.190900     0.885284    Biso  1.000000 O
   O22         1.0     0.240137     0.809100     0.385284    Biso  1.000000 O
   O23         1.0     0.740137     0.690900     0.614716    Biso  1.000000 O
   O24         1.0     0.759863     0.309100     0.114716    Biso  1.000000 O
   O25         1.0     0.082420     0.495311     0.237720    Biso  1.000000 O
   O26         1.0     0.417580     0.504689     0.737720    Biso  1.000000 O
   O27         1.0     0.917580     0.995311     0.262280    Biso  1.000000 O
   O28         1.0     0.582420     0.004689     0.762280    Biso  1.000000 O
   N1          1.0     0.993402     0.351004     0.270002    Biso  1.000000 N
   N2          1.0     0.506598     0.648996     0.770002    Biso  1.000000 N
   N3          1.0     0.006598     0.851004     0.229998    Biso  1.000000 N
   N4          1.0     0.493402     0.148996     0.729998    Biso  1.000000 N
