
#======================================================================
# CRYSTAL DATA
#----------------------------------------------------------------------
data_VESTA_phase_1

_chemical_name_common                  'crystal                               '
_cell_length_a                         7.921407
_cell_length_b                         7.274978
_cell_length_c                         13.141881
_cell_angle_alpha                      90.000000
_cell_angle_beta                       90.000000
_cell_angle_gamma                      90.000000
_cell_volume                           757.341116
_space_group_name_H-M_alt              'P 1'
_space_group_IT_number                 1

loop_
_space_group_symop_operation_xyz
   'x, y, z'

loop_
   _atom_site_label
   _atom_site_occupancy
   _atom_site_fract_x
   _atom_site_fract_y
   _atom_site_fract_z
   _atom_site_adp_type
   _atom_site_B_iso_or_equiv
   _atom_site_type_symbol
   Ni1         1.0     0.563767     0.496896     0.088885    Biso  1.000000 Ni
   Ni2         1.0     0.936233     0.503104     0.588885    Biso  1.000000 Ni
   Ni3         1.0     0.436233     0.996896     0.411115    Biso  1.000000 Ni
   Ni4         1.0     0.063767     0.003104     0.911115    Biso  1.000000 Ni
   C1          1.0     0.406418     0.225736     0.233234    Biso  1.000000 C
   C2          1.0     0.093582     0.774264     0.733234    Biso  1.000000 C
   C3          1.0     0.593582     0.725736     0.266766    Biso  1.000000 C
   C4          1.0     0.906418     0.274264     0.766766    Biso  1.000000 C
   C5          1.0     0.322204     0.780734     0.020646    Biso  1.000000 C
   C6          1.0     0.177796     0.219266     0.520646    Biso  1.000000 C
   C7          1.0     0.677796     0.280734     0.479354    Biso  1.000000 C
   C8          1.0     0.822204     0.719266     0.979354    Biso  1.000000 C
   C9          1.0     0.308675     0.279432     0.968807    Biso  1.000000 C
   C10         1.0     0.191325     0.720568     0.468807    Biso  1.000000 C
   C11         1.0     0.691325     0.779432     0.531193    Biso  1.000000 C
   C12         1.0     0.808675     0.220568     0.031193    Biso  1.000000 C
   H1          1.0     0.521618     0.148103     0.214170    Biso  1.000000 H
   H2          1.0     0.978382     0.851897     0.714170    Biso  1.000000 H
   H3          1.0     0.478382     0.648103     0.285830    Biso  1.000000 H
   H4          1.0     0.021618     0.351897     0.785830    Biso  1.000000 H
   H5          1.0     0.369009     0.752680     0.943269    Biso  1.000000 H
   H6          1.0     0.130992     0.247320     0.443269    Biso  1.000000 H
   H7          1.0     0.630992     0.252680     0.556731    Biso  1.000000 H
   H8          1.0     0.869008     0.747320     0.056731    Biso  1.000000 H
   H9          1.0     0.241773     0.259954     0.041700    Biso  1.000000 H
   H10         1.0     0.258227     0.740046     0.541700    Biso  1.000000 H
   H11         1.0     0.758227     0.759954     0.458300    Biso  1.000000 H
   H12         1.0     0.741773     0.240046     0.958300    Biso  1.000000 H
   H13         1.0     0.213253     0.505457     0.195100    Biso  1.000000 H
   H14         1.0     0.286747     0.494543     0.695100    Biso  1.000000 H
   H15         1.0     0.786747     0.005457     0.304900    Biso  1.000000 H
   H16         1.0     0.713253     0.994543     0.804900    Biso  1.000000 H
   H17         1.0     0.062087     0.239874     0.275958    Biso  1.000000 H
   H18         1.0     0.437913     0.760126     0.775958    Biso  1.000000 H
   H19         1.0     0.937913     0.739874     0.224042    Biso  1.000000 H
   H20         1.0     0.562087     0.260126     0.724042    Biso  1.000000 H
   H21         1.0     0.869040     0.258371     0.214627    Biso  1.000000 H
   H22         1.0     0.630960     0.741629     0.714627    Biso  1.000000 H
   H23         1.0     0.130960     0.758371     0.285373    Biso  1.000000 H
   H24         1.0     0.369040     0.241629     0.785373    Biso  1.000000 H
   H25         1.0     0.887406     0.305804     0.343867    Biso  1.000000 H
   H26         1.0     0.612594     0.694196     0.843867    Biso  1.000000 H
   H27         1.0     0.112594     0.805804     0.156133    Biso  1.000000 H
   H28         1.0     0.387406     0.194196     0.656133    Biso  1.000000 H
   O1          1.0     0.389534     0.383121     0.191372    Biso  1.000000 O
   O2          1.0     0.110466     0.616879     0.691372    Biso  1.000000 O
   O3          1.0     0.610466     0.883121     0.308628    Biso  1.000000 O
   O4          1.0     0.889534     0.116879     0.808628    Biso  1.000000 O
   O5          1.0     0.300249     0.154997     0.293677    Biso  1.000000 O
   O6          1.0     0.199751     0.845003     0.793677    Biso  1.000000 O
   O7          1.0     0.699751     0.654997     0.206323    Biso  1.000000 O
   O8          1.0     0.800249     0.345003     0.706323    Biso  1.000000 O
   O9          1.0     0.395600     0.709168     0.096026    Biso  1.000000 O
   O10         1.0     0.104400     0.290832     0.596026    Biso  1.000000 O
   O11         1.0     0.604400     0.209168     0.403974    Biso  1.000000 O
   O12         1.0     0.895600     0.790832     0.903974    Biso  1.000000 O
   O13         1.0     0.193061     0.883121     0.030326    Biso  1.000000 O
   O14         1.0     0.306939     0.116879     0.530326    Biso  1.000000 O
   O15         1.0     0.806939     0.383121     0.469674    Biso  1.000000 O
   O16         1.0     0.693061     0.616879     0.969674    Biso  1.000000 O
   O17         1.0     0.444017     0.369844     0.965733    Biso  1.000000 O
   O18         1.0     0.055983     0.630156     0.465733    Biso  1.000000 O
   O19         1.0     0.555983     0.869844     0.534267    Biso  1.000000 O
   O20         1.0     0.944017     0.130156     0.034267    Biso  1.000000 O
   O21         1.0     0.241577     0.206707     0.889661    Biso  1.000000 O
   O22         1.0     0.258423     0.793293     0.389661    Biso  1.000000 O
   O23         1.0     0.758423     0.706707     0.610339    Biso  1.000000 O
   O24         1.0     0.741577     0.293293     0.110339    Biso  1.000000 O
   O25         1.0     0.088523     0.535608     0.192519    Biso  1.000000 O
   O26         1.0     0.411477     0.464392     0.692519    Biso  1.000000 O
   O27         1.0     0.911477     0.035608     0.307481    Biso  1.000000 O
   O28         1.0     0.588523     0.964392     0.807481    Biso  1.000000 O
   N1          1.0     0.932284     0.224456     0.283455    Biso  1.000000 N
   N2          1.0     0.567716     0.775544     0.783455    Biso  1.000000 N
   N3          1.0     0.067716     0.724456     0.216545    Biso  1.000000 N
   N4          1.0     0.432284     0.275544     0.716545    Biso  1.000000 N
