
#======================================================================
# CRYSTAL DATA
#----------------------------------------------------------------------
data_VESTA_phase_1

_chemical_name_common                  'NH4-Zn-(HCOO)3                               '
_cell_length_a                         12.558309
_cell_length_b                         12.558312
_cell_length_c                         8.381599
_cell_angle_alpha                      89.999947
_cell_angle_beta                       90.000084
_cell_angle_gamma                      120.000053
_cell_volume                           1144.773936
_space_group_name_H-M_alt              'P 1'
_space_group_IT_number                 1

loop_
_space_group_symop_operation_xyz
   'x, y, z'

loop_
   _atom_site_label
   _atom_site_occupancy
   _atom_site_fract_x
   _atom_site_fract_y
   _atom_site_fract_z
   _atom_site_adp_type
   _atom_site_B_iso_or_equiv
   _atom_site_type_symbol
   Zn1         1.0     0.335534     0.331118     0.586930    Biso  1.000000 Zn
   Zn2         1.0     0.004416     0.335534     0.086931    Biso  1.000000 Zn
   Zn3         1.0     0.668881     0.004416     0.586931    Biso  1.000000 Zn
   Zn4         1.0     0.664465     0.668882     0.086930    Biso  1.000000 Zn
   Zn5         1.0     0.995584     0.664466     0.586931    Biso  1.000000 Zn
   Zn6         1.0     0.331118     0.995584     0.086930    Biso  1.000000 Zn
   O1          1.0     0.425969     0.261963     0.442762    Biso  1.000000 O
   O2          1.0     0.164007     0.425970     0.942762    Biso  1.000000 O
   O3          1.0     0.738037     0.164007     0.442762    Biso  1.000000 O
   O4          1.0     0.574030     0.738037     0.942762    Biso  1.000000 O
   O5          1.0     0.835993     0.574030     0.442762    Biso  1.000000 O
   O6          1.0     0.261962     0.835993     0.942762    Biso  1.000000 O
   O7          1.0     0.430656     0.154774     0.232130    Biso  1.000000 O
   O8          1.0     0.275882     0.430656     0.732130    Biso  1.000000 O
   O9          1.0     0.845226     0.275882     0.232130    Biso  1.000000 O
   O10         1.0     0.569344     0.845226     0.732130    Biso  1.000000 O
   O11         1.0     0.724118     0.569344     0.232130    Biso  1.000000 O
   O12         1.0     0.154774     0.724118     0.732130    Biso  1.000000 O
   O13         1.0     0.400248     0.492156     0.441257    Biso  1.000000 O
   O14         1.0     0.908092     0.400248     0.941258    Biso  1.000000 O
   O15         1.0     0.507843     0.908091     0.441258    Biso  1.000000 O
   O16         1.0     0.599752     0.507844     0.941257    Biso  1.000000 O
   O17         1.0     0.091908     0.599752     0.441257    Biso  1.000000 O
   O18         1.0     0.492155     0.091908     0.941258    Biso  1.000000 O
   O19         1.0     0.503378     0.605052     0.229027    Biso  1.000000 O
   O20         1.0     0.898326     0.503378     0.729026    Biso  1.000000 O
   O21         1.0     0.394947     0.898326     0.229026    Biso  1.000000 O
   O22         1.0     0.496621     0.394948     0.729026    Biso  1.000000 O
   O23         1.0     0.101674     0.496622     0.229027    Biso  1.000000 O
   O24         1.0     0.605052     0.101674     0.729027    Biso  1.000000 O
   O25         1.0     0.172932     0.233579     0.447544    Biso  1.000000 O
   O26         1.0     0.939353     0.172932     0.947544    Biso  1.000000 O
   O27         1.0     0.766421     0.939354     0.447543    Biso  1.000000 O
   O28         1.0     0.827067     0.766421     0.947544    Biso  1.000000 O
   O29         1.0     0.060646     0.827068     0.447544    Biso  1.000000 O
   O30         1.0     0.233578     0.060646     0.947544    Biso  1.000000 O
   O31         1.0     0.070253     0.241393     0.233639    Biso  1.000000 O
   O32         1.0     0.828860     0.070253     0.733639    Biso  1.000000 O
   O33         1.0     0.758606     0.828860     0.233638    Biso  1.000000 O
   O34         1.0     0.929747     0.758607     0.733639    Biso  1.000000 O
   O35         1.0     0.171140     0.929747     0.233639    Biso  1.000000 O
   O36         1.0     0.241393     0.171140     0.733639    Biso  1.000000 O
   C1          1.0     0.373651     0.185436     0.329228    Biso  1.000000 C
   C2          1.0     0.188216     0.373651     0.829228    Biso  1.000000 C
   C3          1.0     0.814564     0.188216     0.329228    Biso  1.000000 C
   C4          1.0     0.626348     0.814564     0.829228    Biso  1.000000 C
   C5          1.0     0.811784     0.626349     0.329228    Biso  1.000000 C
   C6          1.0     0.185435     0.811784     0.829228    Biso  1.000000 C
   C7          1.0     0.470805     0.514168     0.321207    Biso  1.000000 C
   C8          1.0     0.956637     0.470805     0.821207    Biso  1.000000 C
   C9          1.0     0.485832     0.956638     0.321207    Biso  1.000000 C
   C10         1.0     0.529195     0.485832     0.821208    Biso  1.000000 C
   C11         1.0     0.043363     0.529196     0.321208    Biso  1.000000 C
   C12         1.0     0.514167     0.043363     0.821208    Biso  1.000000 C
   C13         1.0     0.141191     0.291217     0.352904    Biso  1.000000 C
   C14         1.0     0.849974     0.141191     0.852903    Biso  1.000000 C
   C15         1.0     0.708782     0.849975     0.352903    Biso  1.000000 C
   C16         1.0     0.858808     0.708783     0.852903    Biso  1.000000 C
   C17         1.0     0.150025     0.858809     0.352903    Biso  1.000000 C
   C18         1.0     0.291217     0.150026     0.852903    Biso  1.000000 C
   H1          1.0     0.273279     0.145016     0.316964    Biso  1.000000 H
   H2          1.0     0.128263     0.273279     0.816965    Biso  1.000000 H
   H3          1.0     0.854984     0.128264     0.316964    Biso  1.000000 H
   H4          1.0     0.726720     0.854984     0.816964    Biso  1.000000 H
   H5          1.0     0.871736     0.726721     0.316965    Biso  1.000000 H
   H6          1.0     0.145015     0.871736     0.816965    Biso  1.000000 H
   H7          1.0     0.505400     0.450270     0.298447    Biso  1.000000 H
   H8          1.0     0.055129     0.505400     0.798446    Biso  1.000000 H
   H9          1.0     0.549729     0.055130     0.298447    Biso  1.000000 H
   H10         1.0     0.494599     0.549730     0.798447    Biso  1.000000 H
   H11         1.0     0.944870     0.494600     0.298446    Biso  1.000000 H
   H12         1.0     0.450270     0.944870     0.798447    Biso  1.000000 H
   H13         1.0     0.176205     0.390185     0.372338    Biso  1.000000 H
   H14         1.0     0.786020     0.176205     0.872337    Biso  1.000000 H
   H15         1.0     0.609814     0.786020     0.372337    Biso  1.000000 H
   H16         1.0     0.823795     0.609814     0.872338    Biso  1.000000 H
   H17         1.0     0.213980     0.823795     0.372337    Biso  1.000000 H
   H18         1.0     0.390185     0.213980     0.872337    Biso  1.000000 H
   H19         1.0     0.577397     0.306241     0.498667    Biso  1.000000 H
   H20         1.0     0.271156     0.577397     0.998666    Biso  1.000000 H
   H21         1.0     0.693759     0.271156     0.498666    Biso  1.000000 H
   H22         1.0     0.422603     0.693759     0.998667    Biso  1.000000 H
   H23         1.0     0.728844     0.422603     0.498666    Biso  1.000000 H
   H24         1.0     0.306241     0.728844     0.998667    Biso  1.000000 H
   H25         1.0     0.333333     0.666667     0.159949    Biso  1.000000 H
   H26         1.0     0.666666     0.333333     0.659949    Biso  1.000000 H
   H27         1.0     0.358794     0.603121     0.498384    Biso  1.000000 H
   H28         1.0     0.755674     0.358795     0.998384    Biso  1.000000 H
   H29         1.0     0.396878     0.755672     0.498385    Biso  1.000000 H
   H30         1.0     0.641207     0.396877     0.998386    Biso  1.000000 H
   H31         1.0     0.244331     0.641206     0.498386    Biso  1.000000 H
   H32         1.0     0.603123     0.244329     0.998385    Biso  1.000000 H
   H33         1.0     0.333333     0.666667     0.659791    Biso  1.000000 H
   H34         1.0     0.666666     0.333333     0.159791    Biso  1.000000 H
   H35         1.0     0.027304     0.089400     0.175998    Biso  1.000000 H
   H36         1.0     0.937904     0.027304     0.675998    Biso  1.000000 H
   H37         1.0     0.910599     0.937904     0.175999    Biso  1.000000 H
   H38         1.0     0.972695     0.910600     0.675998    Biso  1.000000 H
   H39         1.0     0.062094     0.972697     0.175997    Biso  1.000000 H
   H40         1.0     0.089398     0.062094     0.675998    Biso  1.000000 H
   H41         1.0     0.999999     1.000000     0.014752    Biso  1.000000 H
   H42         1.0     1.000000     0.000000     0.514752    Biso  1.000000 H
   N1          1.0     0.333333     0.666667     0.038063    Biso  1.000000 N
   N2          1.0     0.666665     0.333333     0.538063    Biso  1.000000 N
   N3          1.0     0.333328     0.666665     0.537839    Biso  1.000000 N
   N4          1.0     0.666663     0.333334     0.037839    Biso  1.000000 N
   N5          1.0     0.000003     1.000000     0.136659    Biso  1.000000 N
   N6          1.0     0.000002     0.000002     0.636659    Biso  1.000000 N
