
#======================================================================
# CRYSTAL DATA
#----------------------------------------------------------------------
data_VESTA_phase_1

_chemical_name_common                  'NH4-Mn-(HCOO)3                 '
_cell_length_a                         12.553725
_cell_length_b                         12.553728
_cell_length_c                         8.712481
_cell_angle_alpha                      90.000000
_cell_angle_beta                       90.000000
_cell_angle_gamma                      120.000023
_cell_volume                           1189.098114
_space_group_name_H-M_alt              'P 1'
_space_group_IT_number                 1

loop_
_space_group_symop_operation_xyz
   'x, y, z'

loop_
   _atom_site_label
   _atom_site_occupancy
   _atom_site_fract_x
   _atom_site_fract_y
   _atom_site_fract_z
   _atom_site_adp_type
   _atom_site_B_iso_or_equiv
   _atom_site_type_symbol
   Mn1         1.0     0.336672     0.328742     0.588167    Biso  1.000000 Mn
   Mn2         1.0     0.671257     0.007929     0.588167    Biso  1.000000 Mn
   Mn3         1.0     0.992071     0.663329     0.588166    Biso  1.000000 Mn
   Mn4         1.0     0.663328     0.671258     0.088167    Biso  1.000000 Mn
   Mn5         1.0     0.328743     0.992071     0.088167    Biso  1.000000 Mn
   Mn6         1.0     0.007929     0.336671     0.088166    Biso  1.000000 Mn
   O1          1.0     0.424690     0.255641     0.441596    Biso  1.000000 O
   O2          1.0     0.744359     0.169048     0.441597    Biso  1.000000 O
   O3          1.0     0.830951     0.575311     0.441596    Biso  1.000000 O
   O4          1.0     0.575310     0.744359     0.941596    Biso  1.000000 O
   O5          1.0     0.255641     0.830952     0.941597    Biso  1.000000 O
   O6          1.0     0.169049     0.424689     0.941596    Biso  1.000000 O
   O7          1.0     0.433641     0.157601     0.230431    Biso  1.000000 O
   O8          1.0     0.842397     0.276039     0.230431    Biso  1.000000 O
   O9          1.0     0.723961     0.566359     0.230431    Biso  1.000000 O
   O10         1.0     0.566359     0.842399     0.730431    Biso  1.000000 O
   O11         1.0     0.157603     0.723961     0.730431    Biso  1.000000 O
   O12         1.0     0.276039     0.433641     0.730431    Biso  1.000000 O
   O13         1.0     0.399238     0.491392     0.436657    Biso  1.000000 O
   O14         1.0     0.508609     0.907846     0.436656    Biso  1.000000 O
   O15         1.0     0.092153     0.600763     0.436656    Biso  1.000000 O
   O16         1.0     0.600762     0.508608     0.936657    Biso  1.000000 O
   O17         1.0     0.491391     0.092154     0.936656    Biso  1.000000 O
   O18         1.0     0.907847     0.399237     0.936656    Biso  1.000000 O
   O19         1.0     0.497648     0.603261     0.228469    Biso  1.000000 O
   O20         1.0     0.396738     0.894387     0.228468    Biso  1.000000 O
   O21         1.0     0.105612     0.502351     0.228467    Biso  1.000000 O
   O22         1.0     0.502352     0.396739     0.728469    Biso  1.000000 O
   O23         1.0     0.603262     0.105613     0.728468    Biso  1.000000 O
   O24         1.0     0.894388     0.497649     0.728467    Biso  1.000000 O
   O25         1.0     0.166497     0.228672     0.454501    Biso  1.000000 O
   O26         1.0     0.771328     0.937826     0.454501    Biso  1.000000 O
   O27         1.0     0.062175     0.833503     0.454499    Biso  1.000000 O
   O28         1.0     0.833503     0.771328     0.954501    Biso  1.000000 O
   O29         1.0     0.228672     0.062174     0.954501    Biso  1.000000 O
   O30         1.0     0.937825     0.166497     0.954499    Biso  1.000000 O
   O31         1.0     0.072219     0.241792     0.242052    Biso  1.000000 O
   O32         1.0     0.758208     0.830427     0.242053    Biso  1.000000 O
   O33         1.0     0.169573     0.927780     0.242054    Biso  1.000000 O
   O34         1.0     0.927781     0.758208     0.742052    Biso  1.000000 O
   O35         1.0     0.241792     0.169573     0.742053    Biso  1.000000 O
   O36         1.0     0.830427     0.072220     0.742054    Biso  1.000000 O
   C1          1.0     0.376767     0.189562     0.322296    Biso  1.000000 C
   C2          1.0     0.810438     0.187203     0.322296    Biso  1.000000 C
   C3          1.0     0.812796     0.623233     0.322297    Biso  1.000000 C
   C4          1.0     0.623233     0.810438     0.822296    Biso  1.000000 C
   C5          1.0     0.189562     0.812797     0.822295    Biso  1.000000 C
   C6          1.0     0.187204     0.376767     0.822297    Biso  1.000000 C
   C7          1.0     0.464726     0.511783     0.316418    Biso  1.000000 C
   C8          1.0     0.488216     0.952942     0.316417    Biso  1.000000 C
   C9          1.0     0.047059     0.535275     0.316419    Biso  1.000000 C
   C10         1.0     0.535274     0.488217     0.816418    Biso  1.000000 C
   C11         1.0     0.511784     0.047058     0.816417    Biso  1.000000 C
   C12         1.0     0.952941     0.464725     0.816419    Biso  1.000000 C
   C13         1.0     0.132371     0.285959     0.366162    Biso  1.000000 C
   C14         1.0     0.714042     0.846412     0.366161    Biso  1.000000 C
   C15         1.0     0.153588     0.867630     0.366160    Biso  1.000000 C
   C16         1.0     0.867629     0.714041     0.866162    Biso  1.000000 C
   C17         1.0     0.285958     0.153588     0.866161    Biso  1.000000 C
   C18         1.0     0.846412     0.132370     0.866160    Biso  1.000000 C
   H1          1.0     0.278946     0.159301     0.300005    Biso  1.000000 H
   H2          1.0     0.840699     0.119645     0.300005    Biso  1.000000 H
   H3          1.0     0.880355     0.721054     0.300005    Biso  1.000000 H
   H4          1.0     0.721054     0.840699     0.800005    Biso  1.000000 H
   H5          1.0     0.159301     0.880355     0.800005    Biso  1.000000 H
   H6          1.0     0.119645     0.278946     0.800005    Biso  1.000000 H
   H7          1.0     0.495456     0.445345     0.289202    Biso  1.000000 H
   H8          1.0     0.554656     0.050113     0.289201    Biso  1.000000 H
   H9          1.0     0.949886     0.504542     0.289202    Biso  1.000000 H
   H10         1.0     0.504544     0.554655     0.789202    Biso  1.000000 H
   H11         1.0     0.445344     0.949887     0.789201    Biso  1.000000 H
   H12         1.0     0.050114     0.495458     0.789202    Biso  1.000000 H
   H13         1.0     0.156177     0.380996     0.396187    Biso  1.000000 H
   H14         1.0     0.619004     0.775181     0.396188    Biso  1.000000 H
   H15         1.0     0.224819     0.843823     0.396188    Biso  1.000000 H
   H16         1.0     0.843823     0.619004     0.896187    Biso  1.000000 H
   H17         1.0     0.380996     0.224819     0.896188    Biso  1.000000 H
   H18         1.0     0.775181     0.156177     0.896188    Biso  1.000000 H
   H19         1.0     0.576576     0.301512     0.496253    Biso  1.000000 H
   H20         1.0     0.698488     0.275064     0.496249    Biso  1.000000 H
   H21         1.0     0.724937     0.423424     0.496252    Biso  1.000000 H
   H22         1.0     0.423424     0.698488     0.996253    Biso  1.000000 H
   H23         1.0     0.301512     0.724935     0.996249    Biso  1.000000 H
   H24         1.0     0.275063     0.576576     0.996252    Biso  1.000000 H
   H25         1.0     0.666667     0.333334     0.651963    Biso  1.000000 H
   H26         1.0     0.333333     0.666666     0.151963    Biso  1.000000 H
   H27         1.0     0.358625     0.603082     0.492048    Biso  1.000000 H
   H28         1.0     0.396917     0.755543     0.492045    Biso  1.000000 H
   H29         1.0     0.244457     0.641375     0.492044    Biso  1.000000 H
   H30         1.0     0.641375     0.396918     0.992048    Biso  1.000000 H
   H31         1.0     0.603083     0.244457     0.992045    Biso  1.000000 H
   H32         1.0     0.755543     0.358625     0.992044    Biso  1.000000 H
   H33         1.0     0.333333     0.666667     0.647952    Biso  1.000000 H
   H34         1.0     0.666667     0.333333     0.147952    Biso  1.000000 H
   H35         1.0     0.029678     0.089799     0.185577    Biso  1.000000 H
   H36         1.0     0.910201     0.939879     0.185577    Biso  1.000000 H
   H37         1.0     0.060121     0.970322     0.185577    Biso  1.000000 H
   H38         1.0     0.970322     0.910201     0.685577    Biso  1.000000 H
   H39         1.0     0.089799     0.060121     0.685577    Biso  1.000000 H
   H40         1.0     0.939879     0.029678     0.685577    Biso  1.000000 H
   H41         1.0     0.000000     1.000000     0.029949    Biso  1.000000 H
   H42         1.0     1.000000     0.000000     0.529949    Biso  1.000000 H
   N1          1.0     0.666667     0.333333     0.534616    Biso  1.000000 N
   N2          1.0     0.333333     0.666667     0.034616    Biso  1.000000 N
   N3          1.0     0.333333     0.666667     0.530509    Biso  1.000000 N
   N4          1.0     0.666667     0.333333     0.030509    Biso  1.000000 N
   N5          1.0     1.000000     0.000000     0.147327    Biso  1.000000 N
   N6          1.0     0.000000     1.000000     0.647327    Biso  1.000000 N
