
#======================================================================
# CRYSTAL DATA
#----------------------------------------------------------------------
data_VESTA_phase_1

_chemical_name_common                  'crystal                               '
_cell_length_a                         12.531950
_cell_length_b                         12.531950
_cell_length_c                         8.252197
_cell_angle_alpha                      90.000000
_cell_angle_beta                       90.000000
_cell_angle_gamma                      120.000000
_cell_volume                           1122.373850
_space_group_name_H-M_alt              'P 1'
_space_group_IT_number                 1

loop_
_space_group_symop_operation_xyz
   'x, y, z'

loop_
   _atom_site_label
   _atom_site_occupancy
   _atom_site_fract_x
   _atom_site_fract_y
   _atom_site_fract_z
   _atom_site_adp_type
   _atom_site_B_iso_or_equiv
   _atom_site_type_symbol
   Ni1         1.0     0.334871     0.331790     0.586597    Biso  1.000000 Ni
   Ni2         1.0     0.668210     0.003081     0.586597    Biso  1.000000 Ni
   Ni3         1.0     0.996919     0.665129     0.586597    Biso  1.000000 Ni
   Ni4         1.0     0.665129     0.668210     0.086597    Biso  1.000000 Ni
   Ni5         1.0     0.331790     0.996919     0.086597    Biso  1.000000 Ni
   Ni6         1.0     0.003081     0.334871     0.086597    Biso  1.000000 Ni
   O1          1.0     0.424547     0.262942     0.443718    Biso  1.000000 O
   O2          1.0     0.737058     0.161604     0.443718    Biso  1.000000 O
   O3          1.0     0.838396     0.575453     0.443718    Biso  1.000000 O
   O4          1.0     0.575453     0.737058     0.943718    Biso  1.000000 O
   O5          1.0     0.262942     0.838396     0.943718    Biso  1.000000 O
   O6          1.0     0.161604     0.424547     0.943718    Biso  1.000000 O
   O7          1.0     0.426727     0.153268     0.231388    Biso  1.000000 O
   O8          1.0     0.846732     0.273459     0.231388    Biso  1.000000 O
   O9          1.0     0.726541     0.573273     0.231388    Biso  1.000000 O
   O10         1.0     0.573273     0.846732     0.731388    Biso  1.000000 O
   O11         1.0     0.153268     0.726541     0.731388    Biso  1.000000 O
   O12         1.0     0.273459     0.426727     0.731388    Biso  1.000000 O
   O13         1.0     0.401036     0.490738     0.443270    Biso  1.000000 O
   O14         1.0     0.509262     0.910298     0.443270    Biso  1.000000 O
   O15         1.0     0.089702     0.598964     0.443270    Biso  1.000000 O
   O16         1.0     0.598964     0.509262     0.943270    Biso  1.000000 O
   O17         1.0     0.490738     0.089702     0.943270    Biso  1.000000 O
   O18         1.0     0.910298     0.401036     0.943270    Biso  1.000000 O
   O19         1.0     0.506411     0.603921     0.229352    Biso  1.000000 O
   O20         1.0     0.396079     0.902490     0.229352    Biso  1.000000 O
   O21         1.0     0.097510     0.493589     0.229352    Biso  1.000000 O
   O22         1.0     0.493589     0.396079     0.729352    Biso  1.000000 O
   O23         1.0     0.603921     0.097510     0.729352    Biso  1.000000 O
   O24         1.0     0.902490     0.506411     0.729352    Biso  1.000000 O
   O25         1.0     0.175981     0.237884     0.445209    Biso  1.000000 O
   O26         1.0     0.762116     0.938096     0.445209    Biso  1.000000 O
   O27         1.0     0.061904     0.824019     0.445209    Biso  1.000000 O
   O28         1.0     0.824019     0.762116     0.945209    Biso  1.000000 O
   O29         1.0     0.237884     0.061904     0.945209    Biso  1.000000 O
   O30         1.0     0.938096     0.175981     0.945209    Biso  1.000000 O
   O31         1.0     0.069929     0.243057     0.230427    Biso  1.000000 O
   O32         1.0     0.756943     0.826872     0.230427    Biso  1.000000 O
   O33         1.0     0.173128     0.930071     0.230427    Biso  1.000000 O
   O34         1.0     0.930071     0.756943     0.730427    Biso  1.000000 O
   O35         1.0     0.243057     0.173128     0.730427    Biso  1.000000 O
   O36         1.0     0.826872     0.069929     0.730427    Biso  1.000000 O
   C1          1.0     0.370091     0.182994     0.332389    Biso  1.000000 C
   C2          1.0     0.817006     0.187097     0.332389    Biso  1.000000 C
   C3          1.0     0.812903     0.629909     0.332389    Biso  1.000000 C
   C4          1.0     0.629909     0.817006     0.832389    Biso  1.000000 C
   C5          1.0     0.182994     0.812903     0.832389    Biso  1.000000 C
   C6          1.0     0.187097     0.370091     0.832389    Biso  1.000000 C
   C7          1.0     0.474860     0.513855     0.324539    Biso  1.000000 C
   C8          1.0     0.486145     0.961005     0.324539    Biso  1.000000 C
   C9          1.0     0.038995     0.525140     0.324539    Biso  1.000000 C
   C10         1.0     0.525140     0.486145     0.824539    Biso  1.000000 C
   C11         1.0     0.513855     0.038995     0.824539    Biso  1.000000 C
   C12         1.0     0.961005     0.474860     0.824539    Biso  1.000000 C
   C13         1.0     0.145204     0.295441     0.347156    Biso  1.000000 C
   C14         1.0     0.704559     0.849763     0.347156    Biso  1.000000 C
   C15         1.0     0.150237     0.854796     0.347156    Biso  1.000000 C
   C16         1.0     0.854796     0.704559     0.847156    Biso  1.000000 C
   C17         1.0     0.295441     0.150237     0.847156    Biso  1.000000 C
   C18         1.0     0.849763     0.145204     0.847156    Biso  1.000000 C
   H1          1.0     0.268992     0.138880     0.325501    Biso  1.000000 H
   H2          1.0     0.861120     0.130113     0.325501    Biso  1.000000 H
   H3          1.0     0.869887     0.731008     0.325501    Biso  1.000000 H
   H4          1.0     0.731008     0.861120     0.825501    Biso  1.000000 H
   H5          1.0     0.138880     0.869887     0.825501    Biso  1.000000 H
   H6          1.0     0.130113     0.268992     0.825501    Biso  1.000000 H
   H7          1.0     0.512928     0.452303     0.305917    Biso  1.000000 H
   H8          1.0     0.547697     0.060625     0.305917    Biso  1.000000 H
   H9          1.0     0.939375     0.487072     0.305917    Biso  1.000000 H
   H10         1.0     0.487072     0.547697     0.805917    Biso  1.000000 H
   H11         1.0     0.452303     0.939375     0.805917    Biso  1.000000 H
   H12         1.0     0.060625     0.512928     0.805917    Biso  1.000000 H
   H13         1.0     0.184567     0.395641     0.361086    Biso  1.000000 H
   H14         1.0     0.604359     0.788927     0.361086    Biso  1.000000 H
   H15         1.0     0.211073     0.815433     0.361086    Biso  1.000000 H
   H16         1.0     0.815433     0.604359     0.861086    Biso  1.000000 H
   H17         1.0     0.395641     0.211073     0.861086    Biso  1.000000 H
   H18         1.0     0.788927     0.184567     0.861086    Biso  1.000000 H
   H19         1.0     0.577368     0.307465     0.499080    Biso  1.000000 H
   H20         1.0     0.692535     0.269903     0.499080    Biso  1.000000 H
   H21         1.0     0.730097     0.422632     0.499080    Biso  1.000000 H
   H22         1.0     0.422632     0.692535     0.999080    Biso  1.000000 H
   H23         1.0     0.307465     0.730097     0.999080    Biso  1.000000 H
   H24         1.0     0.269903     0.577368     0.999080    Biso  1.000000 H
   H25         1.0     0.666700     0.333300     0.662446    Biso  1.000000 H
   H26         1.0     0.333300     0.666700     0.162446    Biso  1.000000 H
   H27         1.0     0.358488     0.602581     0.498827    Biso  1.000000 H
   H28         1.0     0.397419     0.755907     0.498827    Biso  1.000000 H
   H29         1.0     0.244092     0.641512     0.498827    Biso  1.000000 H
   H30         1.0     0.641512     0.397419     0.998827    Biso  1.000000 H
   H31         1.0     0.602581     0.244092     0.998827    Biso  1.000000 H
   H32         1.0     0.755907     0.358488     0.998827    Biso  1.000000 H
   H33         1.0     0.333300     0.666700     0.662208    Biso  1.000000 H
   H34         1.0     0.666700     0.333300     0.162208    Biso  1.000000 H
   H35         1.0     0.026354     0.089491     0.174044    Biso  1.000000 H
   H36         1.0     0.910509     0.936864     0.174044    Biso  1.000000 H
   H37         1.0     0.063136     0.973646     0.174044    Biso  1.000000 H
   H38         1.0     0.973646     0.910509     0.674044    Biso  1.000000 H
   H39         1.0     0.089491     0.063136     0.674044    Biso  1.000000 H
   H40         1.0     0.936864     0.026354     0.674044    Biso  1.000000 H
   H41         1.0     0.000000     0.000000     0.010715    Biso  1.000000 H
   H42         1.0     0.000000     0.000000     0.510715    Biso  1.000000 H
   N1          1.0     0.666700     0.333300     0.538653    Biso  1.000000 N
   N2          1.0     0.333300     0.666700     0.038653    Biso  1.000000 N
   N3          1.0     0.333300     0.666700     0.538337    Biso  1.000000 N
   N4          1.0     0.666700     0.333300     0.038337    Biso  1.000000 N
   N5          1.0     0.000000     0.000000     0.134543    Biso  1.000000 N
   N6          1.0     0.000000     0.000000     0.634543    Biso  1.000000 N
