
#======================================================================
# CRYSTAL DATA
#----------------------------------------------------------------------
data_VESTA_phase_1

_chemical_name_common                  '(CH3)2NH2-Mn-(HCOO)3 '
_cell_length_a                         14.345000
_cell_length_b                         8.323200
_cell_length_c                         8.879300
_cell_angle_alpha                      90.000000
_cell_angle_beta                       120.694000
_cell_angle_gamma                      90.000000
_cell_volume                           911.633929
_space_group_name_H-M_alt              'P 1'
_space_group_IT_number                 1

loop_
_space_group_symop_operation_xyz
   'x, y, z'

loop_
   _atom_site_label
   _atom_site_occupancy
   _atom_site_fract_x
   _atom_site_fract_y
   _atom_site_fract_z
   _atom_site_adp_type
   _atom_site_B_iso_or_equiv
   _atom_site_type_symbol
   O1          1.0     0.234000     0.356500     0.061800    Biso  1.000000 O
   O2          1.0     0.234000     0.643500     0.561800    Biso  1.000000 O
   O3          1.0     0.734000     0.856500     0.061800    Biso  1.000000 O
   O4          1.0     0.734000     0.143500     0.561800    Biso  1.000000 O
   O5          1.0     0.022200     0.338500     0.075300    Biso  1.000000 O
   O6          1.0     0.022200     0.661500     0.575300    Biso  1.000000 O
   O7          1.0     0.522200     0.838500     0.075300    Biso  1.000000 O
   O8          1.0     0.522200     0.161500     0.575300    Biso  1.000000 O
   O9          1.0     0.413200     0.358200     0.230500    Biso  1.000000 O
   O10         1.0     0.413200     0.641800     0.730500    Biso  1.000000 O
   O11         1.0     0.913200     0.858200     0.230500    Biso  1.000000 O
   O12         1.0     0.913200     0.141800     0.730500    Biso  1.000000 O
   O13         1.0     0.121200     0.021700     0.030900    Biso  1.000000 O
   O14         1.0     0.121200     0.978300     0.530900    Biso  1.000000 O
   O15         1.0     0.621200     0.521700     0.030900    Biso  1.000000 O
   O16         1.0     0.621200     0.478300     0.530900    Biso  1.000000 O
   O17         1.0     0.123200     0.165500     0.715500    Biso  1.000000 O
   O18         1.0     0.123200     0.834500     0.215500    Biso  1.000000 O
   O19         1.0     0.623200     0.665500     0.715500    Biso  1.000000 O
   O20         1.0     0.623200     0.334500     0.215500    Biso  1.000000 O
   O21         1.0     0.018700     0.473700     0.748800    Biso  1.000000 O
   O22         1.0     0.018700     0.526300     0.248800    Biso  1.000000 O
   O23         1.0     0.518700     0.973700     0.748800    Biso  1.000000 O
   O24         1.0     0.518700     0.026300     0.248800    Biso  1.000000 O
   C1          1.0     0.324200     0.288100     0.147100    Biso  1.000000 C
   C2          1.0     0.324200     0.711900     0.647100    Biso  1.000000 C
   C3          1.0     0.824200     0.788100     0.147100    Biso  1.000000 C
   C4          1.0     0.824200     0.211900     0.647100    Biso  1.000000 C
   C5          1.0     0.050200     0.528100     0.650900    Biso  1.000000 C
   C6          1.0     0.050200     0.471900     0.150900    Biso  1.000000 C
   C7          1.0     0.550200     0.028100     0.650900    Biso  1.000000 C
   C8          1.0     0.550200     0.971900     0.150900    Biso  1.000000 C
   C9          1.0     0.111700     0.024600     0.656600    Biso  1.000000 C
   C10         1.0     0.111700     0.975400     0.156600    Biso  1.000000 C
   C11         1.0     0.611700     0.524600     0.656600    Biso  1.000000 C
   C12         1.0     0.611700     0.475400     0.156600    Biso  1.000000 C
   C13         1.0     0.273100     0.728200     0.997600    Biso  1.000000 C
   C14         1.0     0.273100     0.271800     0.497600    Biso  1.000000 C
   C15         1.0     0.773100     0.228200     0.997600    Biso  1.000000 C
   C16         1.0     0.773100     0.771800     0.497600    Biso  1.000000 C
   C17         1.0     0.380200     0.755500     0.319600    Biso  1.000000 C
   C18         1.0     0.380200     0.244500     0.819600    Biso  1.000000 C
   C19         1.0     0.880200     0.255500     0.319600    Biso  1.000000 C
   C20         1.0     0.880200     0.744500     0.819600    Biso  1.000000 C
   H1          1.0     0.324800     0.176400     0.148000    Biso  1.000000 H
   H2          1.0     0.324800     0.823600     0.648000    Biso  1.000000 H
   H3          1.0     0.824800     0.676400     0.148000    Biso  1.000000 H
   H4          1.0     0.824800     0.323600     0.648000    Biso  1.000000 H
   H5          1.0     0.097500     0.465500     0.633200    Biso  1.000000 H
   H6          1.0     0.097500     0.534500     0.133200    Biso  1.000000 H
   H7          1.0     0.597500     0.965500     0.633200    Biso  1.000000 H
   H8          1.0     0.597500     0.034500     0.133200    Biso  1.000000 H
   H9          1.0     0.094100     0.946300     0.712800    Biso  1.000000 H
   H10         1.0     0.094100     0.053700     0.212800    Biso  1.000000 H
   H11         1.0     0.594100     0.446300     0.712800    Biso  1.000000 H
   H12         1.0     0.594100     0.553700     0.212800    Biso  1.000000 H
   H13         1.0     0.274600     0.682900     0.899400    Biso  1.000000 H
   H14         1.0     0.274600     0.317100     0.399400    Biso  1.000000 H
   H15         1.0     0.774600     0.182900     0.899400    Biso  1.000000 H
   H16         1.0     0.774600     0.817100     0.399400    Biso  1.000000 H
   H17         1.0     0.263800     0.842500     0.983100    Biso  1.000000 H
   H18         1.0     0.263800     0.157500     0.483100    Biso  1.000000 H
   H19         1.0     0.763800     0.342500     0.983100    Biso  1.000000 H
   H20         1.0     0.763800     0.657500     0.483100    Biso  1.000000 H
   H21         1.0     0.214000     0.682600     0.004500    Biso  1.000000 H
   H22         1.0     0.214000     0.317400     0.504500    Biso  1.000000 H
   H23         1.0     0.714000     0.182600     0.004500    Biso  1.000000 H
   H24         1.0     0.714000     0.817400     0.504500    Biso  1.000000 H
   H25         1.0     0.447900     0.727700     0.421900    Biso  1.000000 H
   H26         1.0     0.447900     0.272300     0.921900    Biso  1.000000 H
   H27         1.0     0.947900     0.227700     0.421900    Biso  1.000000 H
   H28         1.0     0.947900     0.772300     0.921900    Biso  1.000000 H
   H29         1.0     0.321600     0.710100     0.328200    Biso  1.000000 H
   H30         1.0     0.321600     0.289900     0.828200    Biso  1.000000 H
   H31         1.0     0.821600     0.210100     0.328200    Biso  1.000000 H
   H32         1.0     0.821600     0.789900     0.828200    Biso  1.000000 H
   H33         1.0     0.372800     0.870300     0.310900    Biso  1.000000 H
   H34         1.0     0.372800     0.129700     0.810900    Biso  1.000000 H
   H35         1.0     0.872800     0.370300     0.310900    Biso  1.000000 H
   H36         1.0     0.872800     0.629700     0.810900    Biso  1.000000 H
   H37         1.0     0.435000     0.739000     0.144000    Biso  1.000000 H
   H38         1.0     0.435000     0.261000     0.644000    Biso  1.000000 H
   H39         1.0     0.935000     0.239000     0.144000    Biso  1.000000 H
   H40         1.0     0.935000     0.761000     0.644000    Biso  1.000000 H
   H41         1.0     0.384000     0.597000     0.161000    Biso  1.000000 H
   H42         1.0     0.384000     0.403000     0.661000    Biso  1.000000 H
   H43         1.0     0.884000     0.097000     0.161000    Biso  1.000000 H
   H44         1.0     0.884000     0.903000     0.661000    Biso  1.000000 H
   N1          1.0     0.377600     0.691700     0.162400    Biso  1.000000 N
   N2          1.0     0.377600     0.308300     0.662400    Biso  1.000000 N
   N3          1.0     0.877600     0.191700     0.162400    Biso  1.000000 N
   N4          1.0     0.877600     0.808300     0.662400    Biso  1.000000 N
   Mn1         1.0     0.074600     0.248200     0.896200    Biso  1.000000 Mn
   Mn2         1.0     0.074600     0.751800     0.396200    Biso  1.000000 Mn
   Mn3         1.0     0.574600     0.748200     0.896200    Biso  1.000000 Mn
   Mn4         1.0     0.574600     0.251800     0.396200    Biso  1.000000 Mn
