
#======================================================================
# CRYSTAL DATA
#----------------------------------------------------------------------
data_VESTA_phase_1

_chemical_name_common                  '(CH3)2NH2-Co-(HCOO)3                         '
_cell_length_a                         14.103067
_cell_length_b                         8.244267
_cell_length_c                         8.623754
_cell_angle_alpha                      90.000000
_cell_angle_beta                       121.003471
_cell_angle_gamma                      90.000000
_cell_volume                           859.432504
_space_group_name_H-M_alt              'P 1'
_space_group_IT_number                 1

loop_
_space_group_symop_operation_xyz
   'x, y, z'

loop_
   _atom_site_label
   _atom_site_occupancy
   _atom_site_fract_x
   _atom_site_fract_y
   _atom_site_fract_z
   _atom_site_adp_type
   _atom_site_B_iso_or_equiv
   _atom_site_type_symbol
   Co1         1.0     0.999883     0.252741     0.001019    Biso  1.000000 Co
   Co2         1.0     0.999883     0.747259     0.501019    Biso  1.000000 Co
   Co3         1.0     0.499883     0.752740     0.001019    Biso  1.000000 Co
   Co4         1.0     0.499883     0.247260     0.501019    Biso  1.000000 Co
   O1          1.0     0.156169     0.142800     0.161463    Biso  1.000000 O
   O2          1.0     0.156169     0.857200     0.661462    Biso  1.000000 O
   O3          1.0     0.656169     0.642800     0.161462    Biso  1.000000 O
   O4          1.0     0.656169     0.357200     0.661463    Biso  1.000000 O
   O5          1.0     0.049367     0.523824     0.636210    Biso  1.000000 O
   O6          1.0     0.049366     0.476177     0.136209    Biso  1.000000 O
   O7          1.0     0.549366     0.023823     0.636210    Biso  1.000000 O
   O8          1.0     0.549366     0.976177     0.136211    Biso  1.000000 O
   O9          1.0     0.048368     0.332871     0.820663    Biso  1.000000 O
   O10         1.0     0.048369     0.667130     0.320663    Biso  1.000000 O
   O11         1.0     0.548368     0.832870     0.820663    Biso  1.000000 O
   O12         1.0     0.548368     0.167129     0.320663    Biso  1.000000 O
   O13         1.0     0.942652     0.967691     0.353791    Biso  1.000000 O
   O14         1.0     0.942652     0.032309     0.853790    Biso  1.000000 O
   O15         1.0     0.442652     0.467691     0.353790    Biso  1.000000 O
   O16         1.0     0.442652     0.532309     0.853791    Biso  1.000000 O
   O17         1.0     0.946573     0.163108     0.177028    Biso  1.000000 O
   O18         1.0     0.946573     0.836894     0.677029    Biso  1.000000 O
   O19         1.0     0.446573     0.663106     0.177028    Biso  1.000000 O
   O20         1.0     0.446573     0.336892     0.677028    Biso  1.000000 O
   O21         1.0     0.340120     0.139047     0.338673    Biso  1.000000 O
   O22         1.0     0.340120     0.860954     0.838673    Biso  1.000000 O
   O23         1.0     0.840120     0.639046     0.338672    Biso  1.000000 O
   O24         1.0     0.840120     0.360953     0.838673    Biso  1.000000 O
   C1          1.0     0.693053     0.278120     0.092425    Biso  1.000000 C
   C2          1.0     0.693053     0.721879     0.592425    Biso  1.000000 C
   C3          1.0     0.193052     0.778122     0.092426    Biso  1.000000 C
   C4          1.0     0.193052     0.221879     0.592426    Biso  1.000000 C
   C5          1.0     0.248189     0.214469     0.249933    Biso  1.000000 C
   C6          1.0     0.248189     0.785531     0.749932    Biso  1.000000 C
   C7          1.0     0.748189     0.714468     0.249931    Biso  1.000000 C
   C8          1.0     0.748189     0.285531     0.749932    Biso  1.000000 C
   C9          1.0     0.033999     0.477331     0.761718    Biso  1.000000 C
   C10         1.0     0.033998     0.522667     0.261716    Biso  1.000000 C
   C11         1.0     0.533999     0.977334     0.761715    Biso  1.000000 C
   C12         1.0     0.533999     0.022667     0.261718    Biso  1.000000 C
   C13         1.0     0.977106     0.025260     0.256042    Biso  1.000000 C
   C14         1.0     0.977105     0.974739     0.756043    Biso  1.000000 C
   C15         1.0     0.477105     0.525261     0.256043    Biso  1.000000 C
   C16         1.0     0.477106     0.474739     0.756042    Biso  1.000000 C
   C17         1.0     0.804734     0.236347     0.423130    Biso  1.000000 C
   C18         1.0     0.804734     0.763653     0.923130    Biso  1.000000 C
   C19         1.0     0.304735     0.736346     0.423131    Biso  1.000000 C
   C20         1.0     0.304735     0.263653     0.923131    Biso  1.000000 C
   H1          1.0     0.684632     0.147797     0.064635    Biso  1.000000 H
   H2          1.0     0.684633     0.852203     0.564635    Biso  1.000000 H
   H3          1.0     0.184633     0.647797     0.064635    Biso  1.000000 H
   H4          1.0     0.184632     0.352204     0.564635    Biso  1.000000 H
   H5          1.0     0.691744     0.345050     0.982032    Biso  1.000000 H
   H6          1.0     0.691744     0.654949     0.482033    Biso  1.000000 H
   H7          1.0     0.191744     0.845051     0.982032    Biso  1.000000 H
   H8          1.0     0.191744     0.154950     0.482032    Biso  1.000000 H
   H9          1.0     0.625312     0.318867     0.109570    Biso  1.000000 H
   H10         1.0     0.625312     0.681132     0.609570    Biso  1.000000 H
   H11         1.0     0.125313     0.818867     0.109569    Biso  1.000000 H
   H12         1.0     0.125312     0.181133     0.609570    Biso  1.000000 H
   H13         1.0     0.250579     0.348777     0.251962    Biso  1.000000 H
   H14         1.0     0.250579     0.651224     0.751962    Biso  1.000000 H
   H15         1.0     0.750579     0.848776     0.251962    Biso  1.000000 H
   H16         1.0     0.750579     0.151223     0.751962    Biso  1.000000 H
   H17         1.0     0.007026     0.568293     0.825663    Biso  1.000000 H
   H18         1.0     0.007025     0.431707     0.325662    Biso  1.000000 H
   H19         1.0     0.507025     0.068293     0.825661    Biso  1.000000 H
   H20         1.0     0.507025     0.931706     0.325663    Biso  1.000000 H
   H21         1.0     0.036634     0.954360     0.236440    Biso  1.000000 H
   H22         1.0     0.036634     0.045639     0.736439    Biso  1.000000 H
   H23         1.0     0.536634     0.454361     0.236439    Biso  1.000000 H
   H24         1.0     0.536634     0.545640     0.736440    Biso  1.000000 H
   H25         1.0     0.862566     0.257447     0.243700    Biso  1.000000 H
   H26         1.0     0.862567     0.742552     0.743700    Biso  1.000000 H
   H27         1.0     0.362567     0.757448     0.243700    Biso  1.000000 H
   H28         1.0     0.362566     0.242553     0.743700    Biso  1.000000 H
   H29         1.0     0.814362     0.433819     0.283982    Biso  1.000000 H
   H30         1.0     0.814363     0.566181     0.783983    Biso  1.000000 H
   H31         1.0     0.314363     0.933819     0.283983    Biso  1.000000 H
   H32         1.0     0.314362     0.066181     0.783982    Biso  1.000000 H
   H33         1.0     0.884917     0.264443     0.542747    Biso  1.000000 H
   H34         1.0     0.884917     0.735558     0.042748    Biso  1.000000 H
   H35         1.0     0.384916     0.764442     0.542747    Biso  1.000000 H
   H36         1.0     0.384916     0.235557     0.042747    Biso  1.000000 H
   H37         1.0     0.794964     0.104813     0.405968    Biso  1.000000 H
   H38         1.0     0.794965     0.895187     0.905967    Biso  1.000000 H
   H39         1.0     0.294965     0.604813     0.405967    Biso  1.000000 H
   H40         1.0     0.294964     0.395186     0.905968    Biso  1.000000 H
   H41         1.0     0.737009     0.286969     0.434816    Biso  1.000000 H
   H42         1.0     0.737009     0.713033     0.934815    Biso  1.000000 H
   H43         1.0     0.237008     0.786968     0.434815    Biso  1.000000 H
   H44         1.0     0.237009     0.213031     0.934816    Biso  1.000000 H
   N1          1.0     0.800042     0.307956     0.261593    Biso  1.000000 N
   N2          1.0     0.800043     0.692043     0.761594    Biso  1.000000 N
   N3          1.0     0.300043     0.807957     0.261593    Biso  1.000000 N
   N4          1.0     0.300042     0.192044     0.761593    Biso  1.000000 N
