
#======================================================================
# CRYSTAL DATA
#----------------------------------------------------------------------
data_VESTA_phase_1

_chemical_name_common                  'C4 H9 Cu N3 O6                        '
_cell_length_a                         8.497791
_cell_length_b                         9.071661
_cell_length_c                         11.266231
_cell_angle_alpha                      90.000000
_cell_angle_beta                       90.000000
_cell_angle_gamma                      90.000000
_cell_volume                           868.503371
_space_group_name_H-M_alt              'P 1'
_space_group_IT_number                 1

loop_
_space_group_symop_operation_xyz
   'x, y, z'

loop_
   _atom_site_label
   _atom_site_occupancy
   _atom_site_fract_x
   _atom_site_fract_y
   _atom_site_fract_z
   _atom_site_adp_type
   _atom_site_B_iso_or_equiv
   _atom_site_type_symbol
   Cu1         1.0     0.983929     0.001516     0.498255    Biso  1.000000 Cu
   Cu2         1.0     0.016071     0.998484     0.998254    Biso  1.000000 Cu
   Cu3         1.0     0.483929     0.498484     0.498255    Biso  1.000000 Cu
   Cu4         1.0     0.516071     0.501516     0.998254    Biso  1.000000 Cu
   O1          1.0     0.858203     0.846393     0.575758    Biso  1.000000 O
   O2          1.0     0.141797     0.153607     0.075758    Biso  1.000000 O
   O3          1.0     0.358203     0.653607     0.575758    Biso  1.000000 O
   O4          1.0     0.641797     0.346393     0.075758    Biso  1.000000 O
   O5          1.0     0.704659     0.648144     0.561305    Biso  1.000000 O
   O6          1.0     0.295341     0.351856     0.061305    Biso  1.000000 O
   O7          1.0     0.204659     0.851856     0.561305    Biso  1.000000 O
   O8          1.0     0.795341     0.148144     0.061305    Biso  1.000000 O
   O9          1.0     0.986663     0.119566     0.649859    Biso  1.000000 O
   O10         1.0     0.013337     0.880434     0.149859    Biso  1.000000 O
   O11         1.0     0.486663     0.380434     0.649859    Biso  1.000000 O
   O12         1.0     0.513337     0.619566     0.149859    Biso  1.000000 O
   O13         1.0     0.019242     0.118190     0.846130    Biso  1.000000 O
   O14         1.0     0.980758     0.881810     0.346130    Biso  1.000000 O
   O15         1.0     0.519242     0.381810     0.846130    Biso  1.000000 O
   O16         1.0     0.480758     0.618190     0.346130    Biso  1.000000 O
   O17         1.0     0.157769     0.121182     0.430246    Biso  1.000000 O
   O18         1.0     0.842231     0.878818     0.930246    Biso  1.000000 O
   O19         1.0     0.657769     0.378818     0.430246    Biso  1.000000 O
   O20         1.0     0.342231     0.621182     0.930246    Biso  1.000000 O
   O21         1.0     0.308710     0.321616     0.414769    Biso  1.000000 O
   O22         1.0     0.691290     0.678384     0.914769    Biso  1.000000 O
   O23         1.0     0.808710     0.178384     0.414769    Biso  1.000000 O
   O24         1.0     0.191290     0.821616     0.914769    Biso  1.000000 O
   C1          1.0     0.740349     0.776917     0.531332    Biso  1.000000 C
   C2          1.0     0.259651     0.223083     0.031332    Biso  1.000000 C
   C3          1.0     0.240349     0.723083     0.531332    Biso  1.000000 C
   C4          1.0     0.759651     0.276917     0.031332    Biso  1.000000 C
   C5          1.0     0.014410     0.052164     0.746658    Biso  1.000000 C
   C6          1.0     0.985590     0.947836     0.246658    Biso  1.000000 C
   C7          1.0     0.514410     0.447836     0.746658    Biso  1.000000 C
   C8          1.0     0.485590     0.552164     0.246658    Biso  1.000000 C
   C9          1.0     0.189609     0.256367     0.454678    Biso  1.000000 C
   C10         1.0     0.810391     0.743633     0.954679    Biso  1.000000 C
   C11         1.0     0.689609     0.243633     0.454678    Biso  1.000000 C
   C12         1.0     0.310391     0.756367     0.954679    Biso  1.000000 C
   C13         1.0     0.007434     0.505374     0.748127    Biso  1.000000 C
   C14         1.0     0.992566     0.494626     0.248127    Biso  1.000000 C
   C15         1.0     0.507434     0.994626     0.748127    Biso  1.000000 C
   C16         1.0     0.492566     0.005374     0.248127    Biso  1.000000 C
   H1          1.0     0.668857     0.835096     0.463560    Biso  1.000000 H
   H2          1.0     0.331143     0.164904     0.963560    Biso  1.000000 H
   H3          1.0     0.168857     0.664904     0.463560    Biso  1.000000 H
   H4          1.0     0.831143     0.335096     0.963560    Biso  1.000000 H
   H5          1.0     0.036144     0.933061     0.744073    Biso  1.000000 H
   H6          1.0     0.963856     0.066939     0.244073    Biso  1.000000 H
   H7          1.0     0.536144     0.566939     0.744073    Biso  1.000000 H
   H8          1.0     0.463856     0.433061     0.244073    Biso  1.000000 H
   H9          1.0     0.107564     0.315792     0.514146    Biso  1.000000 H
   H10         1.0     0.892436     0.684208     0.014146    Biso  1.000000 H
   H11         1.0     0.607564     0.184208     0.514146    Biso  1.000000 H
   H12         1.0     0.392436     0.815792     0.014146    Biso  1.000000 H
   H13         1.0     0.088488     0.706813     0.805035    Biso  1.000000 H
   H14         1.0     0.911512     0.293187     0.305035    Biso  1.000000 H
   H15         1.0     0.588488     0.793187     0.805035    Biso  1.000000 H
   H16         1.0     0.411512     0.206813     0.305035    Biso  1.000000 H
   H17         1.0     0.954978     0.711728     0.684264    Biso  1.000000 H
   H18         1.0     0.045022     0.288272     0.184264    Biso  1.000000 H
   H19         1.0     0.454978     0.788272     0.684264    Biso  1.000000 H
   H20         1.0     0.545022     0.211728     0.184264    Biso  1.000000 H
   H21         1.0     0.185961     0.481772     0.868453    Biso  1.000000 H
   H22         1.0     0.814039     0.518228     0.368453    Biso  1.000000 H
   H23         1.0     0.685961     0.018228     0.868453    Biso  1.000000 H
   H24         1.0     0.314039     0.981773     0.368453    Biso  1.000000 H
   H25         1.0     0.080183     0.317867     0.833479    Biso  1.000000 H
   H26         1.0     0.919817     0.682133     0.333479    Biso  1.000000 H
   H27         1.0     0.580183     0.182133     0.833479    Biso  1.000000 H
   H28         1.0     0.419817     0.817867     0.333479    Biso  1.000000 H
   H29         1.0     0.828864     0.498696     0.627481    Biso  1.000000 H
   H30         1.0     0.171136     0.501304     0.127480    Biso  1.000000 H
   H31         1.0     0.328864     0.001304     0.627481    Biso  1.000000 H
   H32         1.0     0.671136     0.998696     0.127480    Biso  1.000000 H
   H33         1.0     0.910409     0.323955     0.668137    Biso  1.000000 H
   H34         1.0     0.089591     0.676045     0.168137    Biso  1.000000 H
   H35         1.0     0.410409     0.176045     0.668137    Biso  1.000000 H
   H36         1.0     0.589591     0.823955     0.168137    Biso  1.000000 H
   N1          1.0     0.018983     0.651704     0.744493    Biso  1.000000 N
   N2          1.0     0.981017     0.348296     0.244493    Biso  1.000000 N
   N3          1.0     0.518983     0.848296     0.744493    Biso  1.000000 N
   N4          1.0     0.481017     0.151704     0.244493    Biso  1.000000 N
   N5          1.0     0.099250     0.428369     0.822342    Biso  1.000000 N
   N6          1.0     0.900750     0.571631     0.322342    Biso  1.000000 N
   N7          1.0     0.599250     0.071631     0.822342    Biso  1.000000 N
   N8          1.0     0.400750     0.928369     0.322342    Biso  1.000000 N
   N9          1.0     0.903544     0.435727     0.678019    Biso  1.000000 N
   N10         1.0     0.096456     0.564273     0.178019    Biso  1.000000 N
   N11         1.0     0.403544     0.064273     0.678019    Biso  1.000000 N
   N12         1.0     0.596456     0.935727     0.178019    Biso  1.000000 N
