
#======================================================================
# CRYSTAL DATA
#----------------------------------------------------------------------
data_VESTA_phase_1

_chemical_name_common                  'C2H5NH3-Mg-(HCOO)3                                 '
_cell_length_a                         8.822030
_cell_length_b                         8.118089
_cell_length_c                         11.733465
_cell_angle_alpha                      90.000000
_cell_angle_beta                       90.000000
_cell_angle_gamma                      90.000000
_cell_volume                           840.327578
_space_group_name_H-M_alt              'P 1'
_space_group_IT_number                 1

loop_
_space_group_symop_operation_xyz
   'x, y, z'

loop_
   _atom_site_label
   _atom_site_occupancy
   _atom_site_fract_x
   _atom_site_fract_y
   _atom_site_fract_z
   _atom_site_adp_type
   _atom_site_B_iso_or_equiv
   _atom_site_type_symbol
   Mg1         1.0     0.036018     0.003053     0.499873    Biso  1.000000 Mg
   Mg2         1.0     0.963982     0.996947     0.999873    Biso  1.000000 Mg
   Mg3         1.0     0.463982     0.503053     0.999873    Biso  1.000000 Mg
   Mg4         1.0     0.536018     0.496947     0.499873    Biso  1.000000 Mg
   O1          1.0     0.826705     0.903463     0.560134    Biso  1.000000 O
   O2          1.0     0.173295     0.096537     0.060134    Biso  1.000000 O
   O3          1.0     0.673295     0.403463     0.060134    Biso  1.000000 O
   O4          1.0     0.326705     0.596537     0.560134    Biso  1.000000 O
   O5          1.0     0.651168     0.702680     0.561398    Biso  1.000000 O
   O6          1.0     0.348832     0.297320     0.061398    Biso  1.000000 O
   O7          1.0     0.848832     0.202680     0.061398    Biso  1.000000 O
   O8          1.0     0.151168     0.797320     0.561398    Biso  1.000000 O
   O9          1.0     0.926199     0.211622     0.436176    Biso  1.000000 O
   O10         1.0     0.073801     0.788378     0.936176    Biso  1.000000 O
   O11         1.0     0.573801     0.711622     0.936176    Biso  1.000000 O
   O12         1.0     0.426199     0.288378     0.436176    Biso  1.000000 O
   O13         1.0     0.741821     0.403426     0.435170    Biso  1.000000 O
   O14         1.0     0.258179     0.596574     0.935170    Biso  1.000000 O
   O15         1.0     0.758179     0.903426     0.935170    Biso  1.000000 O
   O16         1.0     0.241821     0.096574     0.435170    Biso  1.000000 O
   O17         1.0     0.052928     0.125681     0.658915    Biso  1.000000 O
   O18         1.0     0.947072     0.874319     0.158915    Biso  1.000000 O
   O19         1.0     0.447072     0.625681     0.158915    Biso  1.000000 O
   O20         1.0     0.552928     0.374319     0.658915    Biso  1.000000 O
   O21         1.0     0.999801     0.118783     0.846107    Biso  1.000000 O
   O22         1.0     0.000199     0.881217     0.346107    Biso  1.000000 O
   O23         1.0     0.500199     0.618783     0.346107    Biso  1.000000 O
   O24         1.0     0.499801     0.381217     0.846107    Biso  1.000000 O
   C1          1.0     0.773298     0.765388     0.526414    Biso  1.000000 C
   C2          1.0     0.226702     0.234612     0.026414    Biso  1.000000 C
   C3          1.0     0.726702     0.265388     0.026414    Biso  1.000000 C
   C4          1.0     0.273298     0.734612     0.526414    Biso  1.000000 C
   C5          1.0     0.811962     0.281132     0.478792    Biso  1.000000 C
   C6          1.0     0.188038     0.718868     0.978792    Biso  1.000000 C
   C7          1.0     0.688038     0.781132     0.978792    Biso  1.000000 C
   C8          1.0     0.311962     0.218868     0.478792    Biso  1.000000 C
   C9          1.0     0.011688     0.051488     0.749542    Biso  1.000000 C
   C10         1.0     0.988312     0.948512     0.249542    Biso  1.000000 C
   C11         1.0     0.488312     0.551488     0.249542    Biso  1.000000 C
   C12         1.0     0.511688     0.448512     0.749542    Biso  1.000000 C
   C13         1.0     0.476139     0.954936     0.714694    Biso  1.000000 C
   C14         1.0     0.523861     0.045064     0.214694    Biso  1.000000 C
   C15         1.0     0.023861     0.454936     0.214694    Biso  1.000000 C
   C16         1.0     0.976139     0.545064     0.714694    Biso  1.000000 C
   C17         1.0     0.371034     0.000797     0.811200    Biso  1.000000 C
   C18         1.0     0.628966     0.999203     0.311200    Biso  1.000000 C
   C19         1.0     0.128966     0.500797     0.311200    Biso  1.000000 C
   C20         1.0     0.871034     0.499203     0.811200    Biso  1.000000 C
   H1          1.0     0.841237     0.698064     0.462302    Biso  1.000000 H
   H2          1.0     0.158763     0.301936     0.962302    Biso  1.000000 H
   H3          1.0     0.658763     0.198064     0.962302    Biso  1.000000 H
   H4          1.0     0.341237     0.801936     0.462302    Biso  1.000000 H
   H5          1.0     0.767506     0.234752     0.561024    Biso  1.000000 H
   H6          1.0     0.232494     0.765248     0.061024    Biso  1.000000 H
   H7          1.0     0.732494     0.734752     0.061024    Biso  1.000000 H
   H8          1.0     0.267506     0.265248     0.561024    Biso  1.000000 H
   H9          1.0     0.984236     0.918782     0.742624    Biso  1.000000 H
   H10         1.0     0.015764     0.081218     0.242624    Biso  1.000000 H
   H11         1.0     0.515764     0.418782     0.242624    Biso  1.000000 H
   H12         1.0     0.484236     0.581218     0.742624    Biso  1.000000 H
   H13         1.0     0.432086     0.995477     0.631930    Biso  1.000000 H
   H14         1.0     0.567914     0.004523     0.131930    Biso  1.000000 H
   H15         1.0     0.067914     0.495477     0.131930    Biso  1.000000 H
   H16         1.0     0.932086     0.504523     0.631930    Biso  1.000000 H
   H17         1.0     0.494252     0.822019     0.709840    Biso  1.000000 H
   H18         1.0     0.505748     0.177981     0.209840    Biso  1.000000 H
   H19         1.0     0.005748     0.322019     0.209840    Biso  1.000000 H
   H20         1.0     0.994252     0.677981     0.709840    Biso  1.000000 H
   H21         1.0     0.420574     0.967151     0.893694    Biso  1.000000 H
   H22         1.0     0.579426     0.032849     0.393694    Biso  1.000000 H
   H23         1.0     0.079426     0.467151     0.393694    Biso  1.000000 H
   H24         1.0     0.920574     0.532849     0.893694    Biso  1.000000 H
   H25         1.0     0.265378     0.931577     0.802251    Biso  1.000000 H
   H26         1.0     0.734622     0.068423     0.302251    Biso  1.000000 H
   H27         1.0     0.234622     0.431577     0.302251    Biso  1.000000 H
   H28         1.0     0.765378     0.568423     0.802251    Biso  1.000000 H
   H29         1.0     0.345314     0.132714     0.811889    Biso  1.000000 H
   H30         1.0     0.654686     0.867286     0.311889    Biso  1.000000 H
   H31         1.0     0.154686     0.632714     0.311889    Biso  1.000000 H
   H32         1.0     0.845314     0.367286     0.811889    Biso  1.000000 H
   H33         1.0     0.619457     0.158061     0.722628    Biso  1.000000 H
   H34         1.0     0.380543     0.841939     0.222628    Biso  1.000000 H
   H35         1.0     0.880543     0.658061     0.222628    Biso  1.000000 H
   H36         1.0     0.119457     0.341939     0.722628    Biso  1.000000 H
   H37         1.0     0.702657     0.987798     0.663766    Biso  1.000000 H
   H38         1.0     0.297343     0.012202     0.163766    Biso  1.000000 H
   H39         1.0     0.797343     0.487798     0.163766    Biso  1.000000 H
   H40         1.0     0.202657     0.512202     0.663766    Biso  1.000000 H
   H41         1.0     0.676317     0.994923     0.806882    Biso  1.000000 H
   H42         1.0     0.323683     0.005077     0.306882    Biso  1.000000 H
   H43         1.0     0.823683     0.494923     0.306882    Biso  1.000000 H
   H44         1.0     0.176317     0.505077     0.806882    Biso  1.000000 H
   N1          1.0     0.629494     0.030716     0.728423    Biso  1.000000 N
   N2          1.0     0.370506     0.969284     0.228423    Biso  1.000000 N
   N3          1.0     0.870506     0.530716     0.228423    Biso  1.000000 N
   N4          1.0     0.129494     0.469284     0.728423    Biso  1.000000 N
