
#======================================================================
# CRYSTAL DATA
#----------------------------------------------------------------------
data_VESTA_phase_1

_chemical_name_common                  'HONH3-Zn-(HCOO)3                                '
_cell_length_a                         7.648407
_cell_length_b                         7.834267
_cell_length_c                         13.182071
_cell_angle_alpha                      90.000000
_cell_angle_beta                       90.000000
_cell_angle_gamma                      90.000000
_cell_volume                           789.865292
_space_group_name_H-M_alt              'P 1'
_space_group_IT_number                 1

loop_
_space_group_symop_operation_xyz
   'x, y, z'

loop_
   _atom_site_label
   _atom_site_occupancy
   _atom_site_fract_x
   _atom_site_fract_y
   _atom_site_fract_z
   _atom_site_adp_type
   _atom_site_B_iso_or_equiv
   _atom_site_type_symbol
   Zn1         1.0     0.049386     0.994119     0.585367    Biso  1.000000 Zn
   Zn2         1.0     0.549386     0.505881     0.414633    Biso  1.000000 Zn
   Zn3         1.0     0.950614     0.494119     0.914633    Biso  1.000000 Zn
   Zn4         1.0     0.450614     0.005881     0.085367    Biso  1.000000 Zn
   C1          1.0     0.919503     0.719133     0.735953    Biso  1.000000 C
   C2          1.0     0.419503     0.780867     0.264047    Biso  1.000000 C
   C3          1.0     0.080497     0.219133     0.764047    Biso  1.000000 C
   C4          1.0     0.580497     0.280867     0.235953    Biso  1.000000 C
   C5          1.0     0.783471     0.255105     0.525152    Biso  1.000000 C
   C6          1.0     0.283471     0.244895     0.474848    Biso  1.000000 C
   C7          1.0     0.216529     0.755105     0.974848    Biso  1.000000 C
   C8          1.0     0.716529     0.744895     0.025152    Biso  1.000000 C
   C9          1.0     0.806801     0.771288     0.465669    Biso  1.000000 C
   C10         1.0     0.306801     0.728712     0.534331    Biso  1.000000 C
   C11         1.0     0.193199     0.271288     0.034331    Biso  1.000000 C
   C12         1.0     0.693199     0.228712     0.965669    Biso  1.000000 C
   H1          1.0     0.048021     0.662044     0.719170    Biso  1.000000 H
   H2          1.0     0.548021     0.837956     0.280830    Biso  1.000000 H
   H3          1.0     0.951979     0.162043     0.780830    Biso  1.000000 H
   H4          1.0     0.451979     0.337957     0.219170    Biso  1.000000 H
   H5          1.0     0.827164     0.225745     0.447171    Biso  1.000000 H
   H6          1.0     0.327164     0.274255     0.552829    Biso  1.000000 H
   H7          1.0     0.172836     0.725745     0.052829    Biso  1.000000 H
   H8          1.0     0.672836     0.774255     0.947171    Biso  1.000000 H
   H9          1.0     0.723499     0.777071     0.534027    Biso  1.000000 H
   H10         1.0     0.223499     0.722929     0.465973    Biso  1.000000 H
   H11         1.0     0.276501     0.277071     0.965973    Biso  1.000000 H
   H12         1.0     0.776501     0.222929     0.034027    Biso  1.000000 H
   H13         1.0     0.701576     0.946463     0.716820    Biso  1.000000 H
   H14         1.0     0.201576     0.553537     0.283180    Biso  1.000000 H
   H15         1.0     0.298424     0.446463     0.783180    Biso  1.000000 H
   H16         1.0     0.798424     0.053537     0.216820    Biso  1.000000 H
   H17         1.0     0.564547     0.745828     0.776832    Biso  1.000000 H
   H18         1.0     0.064547     0.754172     0.223168    Biso  1.000000 H
   H19         1.0     0.435453     0.245828     0.723168    Biso  1.000000 H
   H20         1.0     0.935453     0.254172     0.276832    Biso  1.000000 H
   H21         1.0     0.389784     0.826404     0.710578    Biso  1.000000 H
   H22         1.0     0.889784     0.673596     0.289422    Biso  1.000000 H
   H23         1.0     0.610216     0.326404     0.789422    Biso  1.000000 H
   H24         1.0     0.110216     0.173596     0.210578    Biso  1.000000 H
   H25         1.0     0.422519     0.876959     0.837963    Biso  1.000000 H
   H26         1.0     0.922519     0.623041     0.162037    Biso  1.000000 H
   H27         1.0     0.577481     0.376959     0.662037    Biso  1.000000 H
   H28         1.0     0.077481     0.123041     0.337963    Biso  1.000000 H
   O1          1.0     0.882452     0.859048     0.690928    Biso  1.000000 O
   O2          1.0     0.382452     0.640952     0.309072    Biso  1.000000 O
   O3          1.0     0.117548     0.359048     0.809072    Biso  1.000000 O
   O4          1.0     0.617548     0.140952     0.190928    Biso  1.000000 O
   O5          1.0     0.817437     0.645054     0.797382    Biso  1.000000 O
   O6          1.0     0.317437     0.854946     0.202618    Biso  1.000000 O
   O7          1.0     0.182563     0.145054     0.702618    Biso  1.000000 O
   O8          1.0     0.682563     0.354946     0.297382    Biso  1.000000 O
   O9          1.0     0.847680     0.173132     0.598617    Biso  1.000000 O
   O10         1.0     0.347680     0.326868     0.401383    Biso  1.000000 O
   O11         1.0     0.152320     0.673132     0.901383    Biso  1.000000 O
   O12         1.0     0.652320     0.826868     0.098617    Biso  1.000000 O
   O13         1.0     0.668283     0.371340     0.535741    Biso  1.000000 O
   O14         1.0     0.168283     0.128660     0.464259    Biso  1.000000 O
   O15         1.0     0.331717     0.871340     0.964259    Biso  1.000000 O
   O16         1.0     0.831717     0.628660     0.035741    Biso  1.000000 O
   O17         1.0     0.947245     0.854865     0.462400    Biso  1.000000 O
   O18         1.0     0.447245     0.645135     0.537600    Biso  1.000000 O
   O19         1.0     0.052755     0.354865     0.037600    Biso  1.000000 O
   O20         1.0     0.552755     0.145135     0.962400    Biso  1.000000 O
   O21         1.0     0.753278     0.677388     0.392423    Biso  1.000000 O
   O22         1.0     0.253278     0.822612     0.607577    Biso  1.000000 O
   O23         1.0     0.246722     0.177388     0.107577    Biso  1.000000 O
   O24         1.0     0.746722     0.322612     0.892423    Biso  1.000000 O
   O25         1.0     0.582882     0.995176     0.737460    Biso  1.000000 O
   O26         1.0     0.082882     0.504824     0.262540    Biso  1.000000 O
   O27         1.0     0.417118     0.495176     0.762540    Biso  1.000000 O
   O28         1.0     0.917118     0.004824     0.237460    Biso  1.000000 O
   N1          1.0     0.483288     0.851208     0.767941    Biso  1.000000 N
   N2          1.0     0.983288     0.648792     0.232059    Biso  1.000000 N
   N3          1.0     0.516712     0.351208     0.732059    Biso  1.000000 N
   N4          1.0     0.016712     0.148792     0.267941    Biso  1.000000 N
