
#======================================================================
# CRYSTAL DATA
#----------------------------------------------------------------------
data_VESTA_phase_1

_chemical_name_common                  'NH2NH3-Mg-(HCOO)3                   '
_cell_length_a                         8.865049
_cell_length_b                         7.634391
_cell_length_c                         11.445744
_cell_angle_alpha                      90.000000
_cell_angle_beta                       90.000000
_cell_angle_gamma                      90.000000
_cell_volume                           774.639358
_space_group_name_H-M_alt              'P 1'
_space_group_IT_number                 1

loop_
_space_group_symop_operation_xyz
   'x, y, z'

loop_
   _atom_site_label
   _atom_site_occupancy
   _atom_site_fract_x
   _atom_site_fract_y
   _atom_site_fract_z
   _atom_site_adp_type
   _atom_site_B_iso_or_equiv
   _atom_site_type_symbol
   Mg1         1.0     0.545575     0.499689     0.512227    Biso  1.000000 Mg
   Mg2         1.0     0.454425     0.500311     0.012227    Biso  1.000000 Mg
   Mg3         1.0     0.045575     0.000311     0.512227    Biso  1.000000 Mg
   Mg4         1.0     0.954425    -0.000311     0.012227    Biso  1.000000 Mg
   O1          1.0     0.571084     0.643939     0.669012    Biso  1.000000 O
   O2          1.0     0.428916     0.356061     0.169012    Biso  1.000000 O
   O3          1.0     0.071084     0.856061     0.669012    Biso  1.000000 O
   O4          1.0     0.928916     0.143939     0.169012    Biso  1.000000 O
   O5          1.0     0.501320     0.635099     0.857660    Biso  1.000000 O
   O6          1.0     0.498680     0.364901     0.357660    Biso  1.000000 O
   O7          1.0     0.001320     0.864901     0.857660    Biso  1.000000 O
   O8          1.0     0.998680     0.135099     0.357660    Biso  1.000000 O
   O9          1.0     0.445062     0.726280     0.445502    Biso  1.000000 O
   O10         1.0     0.554938     0.273720     0.945502    Biso  1.000000 O
   O11         1.0     0.945062     0.773720     0.445502    Biso  1.000000 O
   O12         1.0     0.054938     0.226280     0.945502    Biso  1.000000 O
   O13         1.0     0.249514     0.913149     0.440039    Biso  1.000000 O
   O14         1.0     0.750486     0.086851     0.940039    Biso  1.000000 O
   O15         1.0     0.749514     0.586851     0.440039    Biso  1.000000 O
   O16         1.0     0.250486     0.413149     0.940039    Biso  1.000000 O
   O17         1.0     0.338780     0.418033     0.581181    Biso  1.000000 O
   O18         1.0     0.661221     0.581967     0.081181    Biso  1.000000 O
   O19         1.0     0.838779     0.081967     0.581181    Biso  1.000000 O
   O20         1.0     0.161221     0.918033     0.081181    Biso  1.000000 O
   O21         1.0     0.145051     0.229264     0.576964    Biso  1.000000 O
   O22         1.0     0.854949     0.770736     0.076964    Biso  1.000000 O
   O23         1.0     0.645051     0.270736     0.576964    Biso  1.000000 O
   O24         1.0     0.354949     0.729264     0.076964    Biso  1.000000 O
   C1          1.0     0.541660     0.562143     0.763426    Biso  1.000000 C
   C2          1.0     0.458340     0.437857     0.263426    Biso  1.000000 C
   C3          1.0     0.041660     0.937857     0.763426    Biso  1.000000 C
   C4          1.0     0.958340     0.062143     0.263426    Biso  1.000000 C
   C5          1.0     0.324294     0.789092     0.486905    Biso  1.000000 C
   C6          1.0     0.675706     0.210908     0.986905    Biso  1.000000 C
   C7          1.0     0.824294     0.710908     0.486905    Biso  1.000000 C
   C8          1.0     0.175706     0.289092     0.986905    Biso  1.000000 C
   C9          1.0     0.281877     0.271136     0.556255    Biso  1.000000 C
   C10         1.0     0.718123     0.728864     0.056255    Biso  1.000000 C
   C11         1.0     0.781877     0.228864     0.556255    Biso  1.000000 C
   C12         1.0     0.218123     0.771136     0.056255    Biso  1.000000 C
   H1          1.0     0.552314     0.418045     0.762203    Biso  1.000000 H
   H2          1.0     0.447686     0.581955     0.262203    Biso  1.000000 H
   H3          1.0     0.052314     0.081955     0.762203    Biso  1.000000 H
   H4          1.0     0.947686     0.918045     0.262203    Biso  1.000000 H
   H5          1.0     0.280461     0.733189     0.569135    Biso  1.000000 H
   H6          1.0     0.719539     0.266811     0.069135    Biso  1.000000 H
   H7          1.0     0.780461     0.766811     0.569135    Biso  1.000000 H
   H8          1.0     0.219539     0.233189     0.069135    Biso  1.000000 H
   H9          1.0     0.353746     0.172291     0.512865    Biso  1.000000 H
   H10         1.0     0.646254     0.827709     0.012865    Biso  1.000000 H
   H11         1.0     0.853746     0.327709     0.512865    Biso  1.000000 H
   H12         1.0     0.146254     0.672291     0.012865    Biso  1.000000 H
   H13         1.0     0.088207     0.408995     0.672796    Biso  1.000000 H
   H14         1.0     0.911793     0.591005     0.172796    Biso  1.000000 H
   H15         1.0     0.588207     0.091005     0.672796    Biso  1.000000 H
   H16         1.0     0.411793     0.908995     0.172796    Biso  1.000000 H
   H17         1.0     0.083566     0.629869     0.702483    Biso  1.000000 H
   H18         1.0     0.916434     0.370131     0.202483    Biso  1.000000 H
   H19         1.0     0.583566     0.870131     0.702483    Biso  1.000000 H
   H20         1.0     0.416434     0.129869     0.202483    Biso  1.000000 H
   H21         1.0     0.155753     0.483071     0.802549    Biso  1.000000 H
   H22         1.0     0.844247     0.516929     0.302549    Biso  1.000000 H
   H23         1.0     0.655753     0.016929     0.802549    Biso  1.000000 H
   H24         1.0     0.344247     0.983071     0.302549    Biso  1.000000 H
   H25         1.0     0.928774     0.390590     0.846477    Biso  1.000000 H
   H26         1.0     0.071226     0.609410     0.346477    Biso  1.000000 H
   H27         1.0     0.428774     0.109410     0.846477    Biso  1.000000 H
   H28         1.0     0.571226     0.890590     0.346477    Biso  1.000000 H
   H29         1.0     0.908595     0.605144     0.832174    Biso  1.000000 H
   H30         1.0     0.091405     0.394856     0.332174    Biso  1.000000 H
   H31         1.0     0.408595     0.894856     0.832174    Biso  1.000000 H
   H32         1.0     0.591405     0.105144     0.332174    Biso  1.000000 H
   N1          1.0     0.921807     0.490340     0.786088    Biso  1.000000 N
   N2          1.0     0.078193     0.509660     0.286088    Biso  1.000000 N
   N3          1.0     0.421807     0.009660     0.786088    Biso  1.000000 N
   N4          1.0     0.578193     0.990340     0.286088    Biso  1.000000 N
   N5          1.0     0.073034     0.503317     0.738229    Biso  1.000000 N
   N6          1.0     0.926966     0.496683     0.238229    Biso  1.000000 N
   N7          1.0     0.573034     0.996683     0.738229    Biso  1.000000 N
   N8          1.0     0.426966     0.003317     0.238229    Biso  1.000000 N
