
#======================================================================
# CRYSTAL DATA
#----------------------------------------------------------------------
data_VESTA_phase_1

_chemical_name_common                  'NH2NH3-Zn-(HCOO)3                    '
_cell_length_a                         8.651241
_cell_length_b                         7.754193
_cell_length_c                         11.488288
_cell_angle_alpha                      90.000000
_cell_angle_beta                       90.000000
_cell_angle_gamma                      90.000000
_cell_volume                           770.673337
_space_group_name_H-M_alt              'P 1'
_space_group_IT_number                 1

loop_
_space_group_symop_operation_xyz
   'x, y, z'

loop_
   _atom_site_label
   _atom_site_occupancy
   _atom_site_fract_x
   _atom_site_fract_y
   _atom_site_fract_z
   _atom_site_adp_type
   _atom_site_B_iso_or_equiv
   _atom_site_type_symbol
   Zn1         1.0     0.537827     0.499569     0.511618    Biso  1.000000 Zn
   Zn2         1.0     0.462173     0.500431     0.011618    Biso  1.000000 Zn
   Zn3         1.0     0.037827     0.000431     0.511618    Biso  1.000000 Zn
   Zn4         1.0     0.962173    -0.000431     0.011618    Biso  1.000000 Zn
   O1          1.0     0.562604     0.648406     0.667646    Biso  1.000000 O
   O2          1.0     0.437396     0.351594     0.167646    Biso  1.000000 O
   O3          1.0     0.062604     0.851593     0.667646    Biso  1.000000 O
   O4          1.0     0.937396     0.148406     0.167646    Biso  1.000000 O
   O5          1.0     0.506411     0.641677     0.857676    Biso  1.000000 O
   O6          1.0     0.493589     0.358323     0.357676    Biso  1.000000 O
   O7          1.0     0.006411     0.858323     0.857676    Biso  1.000000 O
   O8          1.0     0.993589     0.141677     0.357676    Biso  1.000000 O
   O9          1.0     0.445474     0.730341     0.439274    Biso  1.000000 O
   O10         1.0     0.554526     0.269659     0.939274    Biso  1.000000 O
   O11         1.0     0.945474     0.769659     0.439274    Biso  1.000000 O
   O12         1.0     0.054526     0.230341     0.939274    Biso  1.000000 O
   O13         1.0     0.254401     0.924955     0.438737    Biso  1.000000 O
   O14         1.0     0.745599     0.075045     0.938737    Biso  1.000000 O
   O15         1.0     0.754401     0.575045     0.438737    Biso  1.000000 O
   O16         1.0     0.245599     0.424955     0.938737    Biso  1.000000 O
   O17         1.0     0.318514     0.428280     0.579879    Biso  1.000000 O
   O18         1.0     0.681486     0.571720     0.079879    Biso  1.000000 O
   O19         1.0     0.818514     0.071720     0.579879    Biso  1.000000 O
   O20         1.0     0.181486     0.928280     0.079879    Biso  1.000000 O
   O21         1.0     0.127937     0.233623     0.582758    Biso  1.000000 O
   O22         1.0     0.872063     0.766377     0.082758    Biso  1.000000 O
   O23         1.0     0.627937     0.266377     0.582758    Biso  1.000000 O
   O24         1.0     0.372063     0.733623     0.082758    Biso  1.000000 O
   C1          1.0     0.537153     0.567046     0.762239    Biso  1.000000 C
   C2          1.0     0.462847     0.432954     0.262239    Biso  1.000000 C
   C3          1.0     0.037153     0.932954     0.762239    Biso  1.000000 C
   C4          1.0     0.962847     0.067046     0.262239    Biso  1.000000 C
   C5          1.0     0.322985     0.794045     0.481805    Biso  1.000000 C
   C6          1.0     0.677015     0.205955     0.981805    Biso  1.000000 C
   C7          1.0     0.822985     0.705955     0.481805    Biso  1.000000 C
   C8          1.0     0.177015     0.294045     0.981805    Biso  1.000000 C
   C9          1.0     0.264548     0.281141     0.555234    Biso  1.000000 C
   C10         1.0     0.735452     0.718859     0.055234    Biso  1.000000 C
   C11         1.0     0.764548     0.218859     0.555234    Biso  1.000000 C
   C12         1.0     0.235452     0.781141     0.055234    Biso  1.000000 C
   H1          1.0     0.542150     0.425037     0.760187    Biso  1.000000 H
   H2          1.0     0.457850     0.574963     0.260187    Biso  1.000000 H
   H3          1.0     0.042150     0.074963     0.760187    Biso  1.000000 H
   H4          1.0     0.957850     0.925037     0.260187    Biso  1.000000 H
   H5          1.0     0.272498     0.733697     0.559948    Biso  1.000000 H
   H6          1.0     0.727502     0.266303     0.059948    Biso  1.000000 H
   H7          1.0     0.772498     0.766303     0.559948    Biso  1.000000 H
   H8          1.0     0.227502     0.233697     0.059948    Biso  1.000000 H
   H9          1.0     0.337545     0.188968     0.506940    Biso  1.000000 H
   H10         1.0     0.662455     0.811032     0.006940    Biso  1.000000 H
   H11         1.0     0.837545     0.311032     0.506940    Biso  1.000000 H
   H12         1.0     0.162455     0.688968     0.006940    Biso  1.000000 H
   H13         1.0     0.069739     0.409997     0.677651    Biso  1.000000 H
   H14         1.0     0.930261     0.590003     0.177651    Biso  1.000000 H
   H15         1.0     0.569739     0.090003     0.677651    Biso  1.000000 H
   H16         1.0     0.430261     0.909997     0.177651    Biso  1.000000 H
   H17         1.0     0.068709     0.628476     0.702749    Biso  1.000000 H
   H18         1.0     0.931291     0.371524     0.202749    Biso  1.000000 H
   H19         1.0     0.568709     0.871524     0.702749    Biso  1.000000 H
   H20         1.0     0.431291     0.128476     0.202749    Biso  1.000000 H
   H21         1.0     0.145065     0.488371     0.803373    Biso  1.000000 H
   H22         1.0     0.854935     0.511629     0.303373    Biso  1.000000 H
   H23         1.0     0.645065     0.011629     0.803373    Biso  1.000000 H
   H24         1.0     0.354935     0.988371     0.303373    Biso  1.000000 H
   H25         1.0     0.913810     0.398026     0.852786    Biso  1.000000 H
   H26         1.0     0.086190     0.601974     0.352786    Biso  1.000000 H
   H27         1.0     0.413810     0.101974     0.852786    Biso  1.000000 H
   H28         1.0     0.586190     0.898026     0.352786    Biso  1.000000 H
   H29         1.0     0.896110     0.609485     0.839532    Biso  1.000000 H
   H30         1.0     0.103890     0.390515     0.339532    Biso  1.000000 H
   H31         1.0     0.396110     0.890516     0.839532    Biso  1.000000 H
   H32         1.0     0.603890     0.109485     0.339532    Biso  1.000000 H
   N1          1.0     0.905112     0.496536     0.793057    Biso  1.000000 N
   N2          1.0     0.094888     0.503464     0.293057    Biso  1.000000 N
   N3          1.0     0.405112     0.003464     0.793057    Biso  1.000000 N
   N4          1.0     0.594888     0.996536     0.293057    Biso  1.000000 N
   N5          1.0     0.057626     0.505903     0.741081    Biso  1.000000 N
   N6          1.0     0.942374     0.494097     0.241081    Biso  1.000000 N
   N7          1.0     0.557626     0.994097     0.741081    Biso  1.000000 N
   N8          1.0     0.442374     0.005903     0.241081    Biso  1.000000 N
