
#======================================================================
# CRYSTAL DATA
#----------------------------------------------------------------------
data_VESTA_phase_1

_chemical_name_common                  'NH2NH3-Mn-(HCOO)3                        '
_cell_length_a                         8.990847
_cell_length_b                         7.825275
_cell_length_c                         11.659373
_cell_angle_alpha                      90.000000
_cell_angle_beta                       90.000000
_cell_angle_gamma                      90.000000
_cell_volume                           820.305132
_space_group_name_H-M_alt              'P 1'
_space_group_IT_number                 1

loop_
_space_group_symop_operation_xyz
   'x, y, z'

loop_
   _atom_site_label
   _atom_site_occupancy
   _atom_site_fract_x
   _atom_site_fract_y
   _atom_site_fract_z
   _atom_site_adp_type
   _atom_site_B_iso_or_equiv
   _atom_site_type_symbol
   Mn1         1.0     0.548941     0.498418     0.111173    Biso  1.000000 Mn
   Mn2         1.0     0.451059     0.501582     0.611173    Biso  1.000000 Mn
   Mn3         1.0     0.048941     0.001582     0.111173    Biso  1.000000 Mn
   Mn4         1.0     0.951059     0.998418     0.611173    Biso  1.000000 Mn
   O1          1.0     0.331795     0.425657     0.185097    Biso  1.000000 O
   O2          1.0     0.668205     0.574343     0.685097    Biso  1.000000 O
   O3          1.0     0.831795     0.074343     0.185097    Biso  1.000000 O
   O4          1.0     0.168205     0.925657     0.685097    Biso  1.000000 O
   O5          1.0     0.142094     0.239708     0.182179    Biso  1.000000 O
   O6          1.0     0.857906     0.760292     0.682179    Biso  1.000000 O
   O7          1.0     0.642094     0.260292     0.182179    Biso  1.000000 O
   O8          1.0     0.357906     0.739708     0.682179    Biso  1.000000 O
   O9          1.0     0.451687     0.733322     0.038348    Biso  1.000000 O
   O10         1.0     0.548313     0.266678     0.538348    Biso  1.000000 O
   O11         1.0     0.951687     0.766678     0.038348    Biso  1.000000 O
   O12         1.0     0.048313     0.233322     0.538348    Biso  1.000000 O
   O13         1.0     0.263692     0.921929     0.036069    Biso  1.000000 O
   O14         1.0     0.736308     0.078071     0.536069    Biso  1.000000 O
   O15         1.0     0.763692     0.578071     0.036069    Biso  1.000000 O
   O16         1.0     0.236308     0.421929     0.536069    Biso  1.000000 O
   O17         1.0     0.575030     0.653397     0.270086    Biso  1.000000 O
   O18         1.0     0.424970     0.346603     0.770086    Biso  1.000000 O
   O19         1.0     0.075030     0.846603     0.270086    Biso  1.000000 O
   O20         1.0     0.924970     0.153397     0.770086    Biso  1.000000 O
   O21         1.0     0.503598     0.645355     0.454470    Biso  1.000000 O
   O22         1.0     0.496402     0.354645     0.954470    Biso  1.000000 O
   O23         1.0     0.003598     0.854645     0.454470    Biso  1.000000 O
   O24         1.0     0.996402     0.145354     0.954470    Biso  1.000000 O
   C1          1.0     0.276274     0.282172     0.159877    Biso  1.000000 C
   C2          1.0     0.723726     0.717828     0.659877    Biso  1.000000 C
   C3          1.0     0.776274     0.217828     0.159877    Biso  1.000000 C
   C4          1.0     0.223726     0.782172     0.659877    Biso  1.000000 C
   C5          1.0     0.333458     0.795908     0.079903    Biso  1.000000 C
   C6          1.0     0.666542     0.204092     0.579903    Biso  1.000000 C
   C7          1.0     0.833458     0.704092     0.079903    Biso  1.000000 C
   C8          1.0     0.166542     0.295908     0.579903    Biso  1.000000 C
   C9          1.0     0.545897     0.573446     0.362738    Biso  1.000000 C
   C10         1.0     0.454103     0.426554     0.862738    Biso  1.000000 C
   C11         1.0     0.045897     0.926554     0.362738    Biso  1.000000 C
   C12         1.0     0.954103     0.073446     0.862738    Biso  1.000000 C
   H1          1.0     0.346446     0.187102     0.115056    Biso  1.000000 H
   H2          1.0     0.653554     0.812898     0.615056    Biso  1.000000 H
   H3          1.0     0.846446     0.312898     0.115056    Biso  1.000000 H
   H4          1.0     0.153554     0.687102     0.615056    Biso  1.000000 H
   H5          1.0     0.287367     0.738236     0.158872    Biso  1.000000 H
   H6          1.0     0.712633     0.261764     0.658872    Biso  1.000000 H
   H7          1.0     0.787367     0.761764     0.158872    Biso  1.000000 H
   H8          1.0     0.212633     0.238236     0.658872    Biso  1.000000 H
   H9          1.0     0.558747     0.432907     0.362374    Biso  1.000000 H
   H10         1.0     0.441254     0.567093     0.862374    Biso  1.000000 H
   H11         1.0     0.058747     0.067093     0.362374    Biso  1.000000 H
   H12         1.0     0.941253     0.932907     0.862374    Biso  1.000000 H
   H13         1.0     0.078247     0.626606     0.301671    Biso  1.000000 H
   H14         1.0     0.921753     0.373394     0.801671    Biso  1.000000 H
   H15         1.0     0.578247     0.873394     0.301671    Biso  1.000000 H
   H16         1.0     0.421753     0.126606     0.801671    Biso  1.000000 H
   H17         1.0     0.082004     0.410556     0.274259    Biso  1.000000 H
   H18         1.0     0.917996     0.589444     0.774259    Biso  1.000000 H
   H19         1.0     0.582004     0.089444     0.274259    Biso  1.000000 H
   H20         1.0     0.417996     0.910556     0.774259    Biso  1.000000 H
   H21         1.0     0.145766     0.485327     0.401978    Biso  1.000000 H
   H22         1.0     0.854234     0.514673     0.901978    Biso  1.000000 H
   H23         1.0     0.645766     0.014673     0.401978    Biso  1.000000 H
   H24         1.0     0.354234     0.985327     0.901978    Biso  1.000000 H
   H25         1.0     0.902923     0.604540     0.428116    Biso  1.000000 H
   H26         1.0     0.097077     0.395460     0.928116    Biso  1.000000 H
   H27         1.0     0.402923     0.895460     0.428116    Biso  1.000000 H
   H28         1.0     0.597077     0.104540     0.928116    Biso  1.000000 H
   H29         1.0     0.921091     0.395312     0.442081    Biso  1.000000 H
   H30         1.0     0.078909     0.604688     0.942081    Biso  1.000000 H
   H31         1.0     0.421091     0.104688     0.442081    Biso  1.000000 H
   H32         1.0     0.578909     0.895312     0.942081    Biso  1.000000 H
   N1          1.0     0.065770     0.503929     0.337467    Biso  1.000000 N
   N2          1.0     0.934230     0.496071     0.837467    Biso  1.000000 N
   N3          1.0     0.565770     0.996071     0.337467    Biso  1.000000 N
   N4          1.0     0.434230     0.003929     0.837467    Biso  1.000000 N
   N5          1.0     0.915753     0.492661     0.382753    Biso  1.000000 N
   N6          1.0     0.084247     0.507339     0.882753    Biso  1.000000 N
   N7          1.0     0.415753     0.007339     0.382753    Biso  1.000000 N
   N8          1.0     0.584247     0.992661     0.882753    Biso  1.000000 N
