
#======================================================================
# CRYSTAL DATA
#----------------------------------------------------------------------
data_VESTA_phase_1

_chemical_name_common                  'NH4-Ni-(HCOO)3           '
_cell_length_a                         7.231241
_cell_length_b                         7.233503
_cell_length_c                         8.259332
_cell_angle_alpha                      90.006813
_cell_angle_beta                       89.993492
_cell_angle_gamma                      119.978600
_cell_volume                           374.223131
_space_group_name_H-M_alt              'P 1'
_space_group_IT_number                 1

loop_
_space_group_symop_operation_xyz
   'x, y, z'

loop_
   _atom_site_label
   _atom_site_occupancy
   _atom_site_fract_x
   _atom_site_fract_y
   _atom_site_fract_z
   _atom_site_adp_type
   _atom_site_B_iso_or_equiv
   _atom_site_type_symbol
   Ni1         1.0     0.672014     0.337164     0.755708    Biso  1.000000 Ni
   Ni2         1.0     0.338764     0.670666     0.255709    Biso  1.000000 Ni
   C1          1.0     0.008082     0.449176     0.999718    Biso  1.000000 C
   C2          1.0     0.562647     0.006179     0.500094    Biso  1.000000 C
   C3          1.0     0.560393     0.561366     0.999928    Biso  1.000000 C
   C4          1.0     0.002301     0.558523     0.499372    Biso  1.000000 C
   C5          1.0     0.447916     0.001282     0.999732    Biso  1.000000 C
   C6          1.0     0.450403     0.446509     0.499919    Biso  1.000000 C
   H1          1.0     0.024233     0.608218     0.987218    Biso  1.000000 H
   H2          1.0     0.419369     0.021844     0.488079    Biso  1.000000 H
   H3          1.0     0.401455     0.418260     0.987846    Biso  1.000000 H
   H4          1.0     0.985473     0.399250     0.486362    Biso  1.000000 H
   H5          1.0     0.590767     0.984961     0.987179    Biso  1.000000 H
   H6          1.0     0.609324     0.589630     0.487807    Biso  1.000000 H
   H7          1.0     0.005712     0.003682     0.832960    Biso  1.000000 H
   H8          1.0     0.005380     0.004522     0.332961    Biso  1.000000 H
   H9          1.0     0.890456     0.041698     0.669888    Biso  1.000000 H
   H10         1.0     0.043472     0.157211     0.169603    Biso  1.000000 H
   H11         1.0     0.158480     0.118669     0.669669    Biso  1.000000 H
   H12         1.0     0.120549     0.966221     0.169921    Biso  1.000000 H
   H13         1.0     0.967522     0.850696     0.669726    Biso  1.000000 H
   H14         1.0     0.852515     0.889243     0.169761    Biso  1.000000 H
   N1          1.0     0.005528     0.003680     0.709237    Biso  1.000000 N
   N2          1.0     0.005479     0.004284     0.209238    Biso  1.000000 N
   O1          1.0     0.890866     0.303731     0.900899    Biso  1.000000 O
   O2          1.0     0.591053     0.889375     0.400908    Biso  1.000000 O
   O3          1.0     0.705579     0.589641     0.900748    Biso  1.000000 O
   O4          1.0     0.119804     0.704150     0.400771    Biso  1.000000 O
   O5          1.0     0.419673     0.118506     0.900894    Biso  1.000000 O
   O6          1.0     0.305138     0.418290     0.400862    Biso  1.000000 O
   O7          1.0     0.692474     0.107600     0.615009    Biso  1.000000 O
   O8          1.0     0.109380     0.420903     0.114828    Biso  1.000000 O
   O9          1.0     0.422103     0.316695     0.614803    Biso  1.000000 O
   O10         1.0     0.318418     0.900182     0.114899    Biso  1.000000 O
   O11         1.0     0.901488     0.586882     0.614827    Biso  1.000000 O
   O12         1.0     0.588793     0.691109     0.114919    Biso  1.000000 O
