
#======================================================================
# CRYSTAL DATA
#----------------------------------------------------------------------
data_VESTA_phase_1

_chemical_name_common                  'NH4-Co-(HCOO)3                               '
_cell_length_a                         12.561372
_cell_length_b                         12.561357
_cell_length_c                         8.309775
_cell_angle_alpha                      90.000000
_cell_angle_beta                       90.000000
_cell_angle_gamma                      119.999901
_cell_volume                           1135.517928
_space_group_name_H-M_alt              'P 1'
_space_group_IT_number                 1

loop_
_space_group_symop_operation_xyz
   'x, y, z'

loop_
   _atom_site_label
   _atom_site_occupancy
   _atom_site_fract_x
   _atom_site_fract_y
   _atom_site_fract_z
   _atom_site_adp_type
   _atom_site_B_iso_or_equiv
   _atom_site_type_symbol
   Co1         1.0     0.335078     0.331508     0.587033    Biso  1.000000 Co
   Co2         1.0     0.668493     0.003569     0.587032    Biso  1.000000 Co
   Co3         1.0     0.996430     0.664924     0.587032    Biso  1.000000 Co
   Co4         1.0     0.664922     0.668492     0.087033    Biso  1.000000 Co
   Co5         1.0     0.331507     0.996431     0.087032    Biso  1.000000 Co
   Co6         1.0     0.003570     0.335076     0.087032    Biso  1.000000 Co
   O1          1.0     0.424109     0.261027     0.444259    Biso  1.000000 O
   O2          1.0     0.738973     0.163078     0.444258    Biso  1.000000 O
   O3          1.0     0.836919     0.575892     0.444261    Biso  1.000000 O
   O4          1.0     0.575891     0.738973     0.944259    Biso  1.000000 O
   O5          1.0     0.261027     0.836922     0.944258    Biso  1.000000 O
   O6          1.0     0.163081     0.424108     0.944261    Biso  1.000000 O
   O7          1.0     0.427180     0.154479     0.229902    Biso  1.000000 O
   O8          1.0     0.845521     0.272697     0.229900    Biso  1.000000 O
   O9          1.0     0.727300     0.572821     0.229904    Biso  1.000000 O
   O10         1.0     0.572820     0.845521     0.729902    Biso  1.000000 O
   O11         1.0     0.154479     0.727303     0.729900    Biso  1.000000 O
   O12         1.0     0.272700     0.427179     0.729904    Biso  1.000000 O
   O13         1.0     0.402501     0.491837     0.443352    Biso  1.000000 O
   O14         1.0     0.508164     0.910664     0.443350    Biso  1.000000 O
   O15         1.0     0.089335     0.597502     0.443349    Biso  1.000000 O
   O16         1.0     0.597499     0.508163     0.943352    Biso  1.000000 O
   O17         1.0     0.491836     0.089336     0.943350    Biso  1.000000 O
   O18         1.0     0.910665     0.402498     0.943349    Biso  1.000000 O
   O19         1.0     0.504807     0.603103     0.227730    Biso  1.000000 O
   O20         1.0     0.396896     0.901704     0.227729    Biso  1.000000 O
   O21         1.0     0.098294     0.495191     0.227729    Biso  1.000000 O
   O22         1.0     0.495193     0.396897     0.727730    Biso  1.000000 O
   O23         1.0     0.603104     0.098296     0.727729    Biso  1.000000 O
   O24         1.0     0.901706     0.504809     0.727729    Biso  1.000000 O
   O25         1.0     0.174530     0.236839     0.447896    Biso  1.000000 O
   O26         1.0     0.763162     0.937689     0.447898    Biso  1.000000 O
   O27         1.0     0.062307     0.825472     0.447895    Biso  1.000000 O
   O28         1.0     0.825470     0.763161     0.947896    Biso  1.000000 O
   O29         1.0     0.236838     0.062311     0.947898    Biso  1.000000 O
   O30         1.0     0.937693     0.174528     0.947895    Biso  1.000000 O
   O31         1.0     0.072382     0.243664     0.230766    Biso  1.000000 O
   O32         1.0     0.756335     0.828717     0.230767    Biso  1.000000 O
   O33         1.0     0.171283     0.927620     0.230767    Biso  1.000000 O
   O34         1.0     0.927618     0.756336     0.730766    Biso  1.000000 O
   O35         1.0     0.243665     0.171283     0.730767    Biso  1.000000 O
   O36         1.0     0.828717     0.072380     0.730767    Biso  1.000000 O
   C1          1.0     0.370593     0.183135     0.331498    Biso  1.000000 C
   C2          1.0     0.816867     0.187457     0.331496    Biso  1.000000 C
   C3          1.0     0.812539     0.629408     0.331500    Biso  1.000000 C
   C4          1.0     0.629407     0.816865     0.831498    Biso  1.000000 C
   C5          1.0     0.183133     0.812544     0.831496    Biso  1.000000 C
   C6          1.0     0.187461     0.370592     0.831500    Biso  1.000000 C
   C7          1.0     0.473895     0.513746     0.323187    Biso  1.000000 C
   C8          1.0     0.486255     0.960149     0.323184    Biso  1.000000 C
   C9          1.0     0.039849     0.526105     0.323186    Biso  1.000000 C
   C10         1.0     0.526105     0.486254     0.823187    Biso  1.000000 C
   C11         1.0     0.513745     0.039851     0.823184    Biso  1.000000 C
   C12         1.0     0.960151     0.473895     0.823186    Biso  1.000000 C
   C13         1.0     0.144233     0.294436     0.350024    Biso  1.000000 C
   C14         1.0     0.705564     0.849793     0.350023    Biso  1.000000 C
   C15         1.0     0.150205     0.855772     0.350025    Biso  1.000000 C
   C16         1.0     0.855767     0.705564     0.850024    Biso  1.000000 C
   C17         1.0     0.294436     0.150207     0.850023    Biso  1.000000 C
   C18         1.0     0.849795     0.144228     0.850025    Biso  1.000000 C
   H1          1.0     0.269696     0.139611     0.323628    Biso  1.000000 H
   H2          1.0     0.860393     0.130084     0.323629    Biso  1.000000 H
   H3          1.0     0.869910     0.730306     0.323636    Biso  1.000000 H
   H4          1.0     0.730304     0.860389     0.823628    Biso  1.000000 H
   H5          1.0     0.139607     0.869916     0.823629    Biso  1.000000 H
   H6          1.0     0.130090     0.269694     0.823636    Biso  1.000000 H
   H7          1.0     0.510816     0.451485     0.303156    Biso  1.000000 H
   H8          1.0     0.548518     0.059330     0.303148    Biso  1.000000 H
   H9          1.0     0.940666     0.489181     0.303156    Biso  1.000000 H
   H10         1.0     0.489184     0.548515     0.803156    Biso  1.000000 H
   H11         1.0     0.451482     0.940670     0.803148    Biso  1.000000 H
   H12         1.0     0.059334     0.510819     0.803156    Biso  1.000000 H
   H13         1.0     0.181369     0.393975     0.366828    Biso  1.000000 H
   H14         1.0     0.606026     0.787392     0.366833    Biso  1.000000 H
   H15         1.0     0.212609     0.818638     0.366837    Biso  1.000000 H
   H16         1.0     0.818631     0.606025     0.866828    Biso  1.000000 H
   H17         1.0     0.393974     0.212608     0.866833    Biso  1.000000 H
   H18         1.0     0.787391     0.181362     0.866837    Biso  1.000000 H
   H19         1.0     0.577401     0.306689     0.497910    Biso  1.000000 H
   H20         1.0     0.693310     0.270708     0.497907    Biso  1.000000 H
   H21         1.0     0.729290     0.422598     0.497910    Biso  1.000000 H
   H22         1.0     0.422599     0.693311     0.997910    Biso  1.000000 H
   H23         1.0     0.306690     0.729292     0.997907    Biso  1.000000 H
   H24         1.0     0.270710     0.577402     0.997910    Biso  1.000000 H
   H25         1.0     0.666669     0.333330     0.660182    Biso  1.000000 H
   H26         1.0     0.333331     0.666670     0.160182    Biso  1.000000 H
   H27         1.0     0.359060     0.603223     0.497520    Biso  1.000000 H
   H28         1.0     0.396776     0.755838     0.497519    Biso  1.000000 H
   H29         1.0     0.244161     0.640940     0.497517    Biso  1.000000 H
   H30         1.0     0.640940     0.396777     0.997520    Biso  1.000000 H
   H31         1.0     0.603224     0.244162     0.997519    Biso  1.000000 H
   H32         1.0     0.755839     0.359060     0.997517    Biso  1.000000 H
   H33         1.0     0.333330     0.666668     0.659832    Biso  1.000000 H
   H34         1.0     0.666670     0.333332     0.159832    Biso  1.000000 H
   H35         1.0     0.027572     0.089554     0.175155    Biso  1.000000 H
   H36         1.0     0.910445     0.938018     0.175153    Biso  1.000000 H
   H37         1.0     0.061982     0.972427     0.175153    Biso  1.000000 H
   H38         1.0     0.972428     0.910446     0.675155    Biso  1.000000 H
   H39         1.0     0.089555     0.061982     0.675153    Biso  1.000000 H
   H40         1.0     0.938018     0.027573     0.675153    Biso  1.000000 H
   H41         1.0     0.999999     0.000001     0.012923    Biso  1.000000 H
   H42         1.0     0.000001     0.999999     0.512923    Biso  1.000000 H
   N1          1.0     0.666667     0.333332     0.537227    Biso  1.000000 N
   N2          1.0     0.333333     0.666668     0.037227    Biso  1.000000 N
   N3          1.0     0.333332     0.666668     0.536800    Biso  1.000000 N
   N4          1.0     0.666668     0.333332     0.036800    Biso  1.000000 N
   N5          1.0     0.999999     0.000000     0.135905    Biso  1.000000 N
   N6          1.0     0.000001     1.000000     0.635905    Biso  1.000000 N
