
#======================================================================
# CRYSTAL DATA
#----------------------------------------------------------------------
data_VESTA_phase_1

_chemical_name_common                  'crystal                               '
_cell_length_a                         7.589065
_cell_length_b                         7.975675
_cell_length_c                         12.802968
_cell_angle_alpha                      90.000000
_cell_angle_beta                       90.000000
_cell_angle_gamma                      90.000000
_cell_volume                           774.936896
_space_group_name_H-M_alt              'P 1'
_space_group_IT_number                 1

loop_
_space_group_symop_operation_xyz
   'x, y, z'

loop_
   _atom_site_label
   _atom_site_occupancy
   _atom_site_fract_x
   _atom_site_fract_y
   _atom_site_fract_z
   _atom_site_adp_type
   _atom_site_B_iso_or_equiv
   _atom_site_type_symbol
   Ni1         1.0     0.530014     0.490270     0.081091    Biso  1.000000 Ni
   Ni2         1.0     0.969986     0.509730     0.581091    Biso  1.000000 Ni
   Ni3         1.0     0.469986     0.990270     0.418909    Biso  1.000000 Ni
   Ni4         1.0     0.030014     0.009730     0.918909    Biso  1.000000 Ni
   C1          1.0     0.451076     0.233942     0.245086    Biso  1.000000 C
   C2          1.0     0.048924     0.766058     0.745086    Biso  1.000000 C
   C3          1.0     0.548924     0.733942     0.254914    Biso  1.000000 C
   C4          1.0     0.951076     0.266058     0.754914    Biso  1.000000 C
   C5          1.0     0.262082     0.764675     0.023405    Biso  1.000000 C
   C6          1.0     0.237918     0.235325     0.523405    Biso  1.000000 C
   C7          1.0     0.737918     0.264675     0.476595    Biso  1.000000 C
   C8          1.0     0.762082     0.735325     0.976595    Biso  1.000000 C
   C9          1.0     0.308944     0.255622     0.966130    Biso  1.000000 C
   C10         1.0     0.191056     0.744378     0.466130    Biso  1.000000 C
   C11         1.0     0.691056     0.755622     0.533870    Biso  1.000000 C
   C12         1.0     0.808944     0.244378     0.033870    Biso  1.000000 C
   H1          1.0     0.589940     0.198925     0.231033    Biso  1.000000 H
   H2          1.0     0.910060     0.801075     0.731033    Biso  1.000000 H
   H3          1.0     0.410060     0.698925     0.268967    Biso  1.000000 H
   H4          1.0     0.089940     0.301075     0.768967    Biso  1.000000 H
   H5          1.0     0.350362     0.792364     0.957250    Biso  1.000000 H
   H6          1.0     0.149638     0.207636     0.457250    Biso  1.000000 H
   H7          1.0     0.649638     0.292364     0.542750    Biso  1.000000 H
   H8          1.0     0.850362     0.707636     0.042750    Biso  1.000000 H
   H9          1.0     0.215371     0.281999     0.029806    Biso  1.000000 H
   H10         1.0     0.284629     0.718001     0.529806    Biso  1.000000 H
   H11         1.0     0.784629     0.781999     0.470194    Biso  1.000000 H
   H12         1.0     0.715371     0.218001     0.970194    Biso  1.000000 H
   H13         1.0     0.155146     0.601079     0.166998    Biso  1.000000 H
   H14         1.0     0.344854     0.398921     0.666998    Biso  1.000000 H
   H15         1.0     0.844854     0.101079     0.333002    Biso  1.000000 H
   H16         1.0     0.655146     0.898921     0.833002    Biso  1.000000 H
   H17         1.0     0.138789     0.359685     0.240763    Biso  1.000000 H
   H18         1.0     0.361211     0.640315     0.740763    Biso  1.000000 H
   H19         1.0     0.861211     0.859685     0.259237    Biso  1.000000 H
   H20         1.0     0.638789     0.140315     0.759237    Biso  1.000000 H
   H21         1.0     0.926369     0.391079     0.194851    Biso  1.000000 H
   H22         1.0     0.573631     0.608921     0.694851    Biso  1.000000 H
   H23         1.0     0.073631     0.891079     0.305149    Biso  1.000000 H
   H24         1.0     0.426369     0.108921     0.805149    Biso  1.000000 H
   H25         1.0     0.977513     0.424499     0.324166    Biso  1.000000 H
   H26         1.0     0.522487     0.575501     0.824166    Biso  1.000000 H
   H27         1.0     0.022487     0.924499     0.175834    Biso  1.000000 H
   H28         1.0     0.477513     0.075501     0.675834    Biso  1.000000 H
   O1          1.0     0.386068     0.354407     0.192012    Biso  1.000000 O
   O2          1.0     0.113932     0.645593     0.692012    Biso  1.000000 O
   O3          1.0     0.613932     0.854407     0.307988    Biso  1.000000 O
   O4          1.0     0.886068     0.145593     0.807988    Biso  1.000000 O
   O5          1.0     0.362062     0.154568     0.312403    Biso  1.000000 O
   O6          1.0     0.137938     0.845432     0.812403    Biso  1.000000 O
   O7          1.0     0.637938     0.654568     0.187597    Biso  1.000000 O
   O8          1.0     0.862062     0.345432     0.687597    Biso  1.000000 O
   O9          1.0     0.294438     0.634437     0.078247    Biso  1.000000 O
   O10         1.0     0.205562     0.365563     0.578247    Biso  1.000000 O
   O11         1.0     0.705562     0.134437     0.421753    Biso  1.000000 O
   O12         1.0     0.794438     0.865563     0.921753    Biso  1.000000 O
   O13         1.0     0.133259     0.861539     0.041590    Biso  1.000000 O
   O14         1.0     0.366741     0.138461     0.541590    Biso  1.000000 O
   O15         1.0     0.866741     0.361539     0.458410    Biso  1.000000 O
   O16         1.0     0.633259     0.638461     0.958410    Biso  1.000000 O
   O17         1.0     0.452712     0.335146     0.961519    Biso  1.000000 O
   O18         1.0     0.047288     0.664854     0.461519    Biso  1.000000 O
   O19         1.0     0.547288     0.835146     0.538481    Biso  1.000000 O
   O20         1.0     0.952712     0.164854     0.038481    Biso  1.000000 O
   O21         1.0     0.265657     0.143093     0.899702    Biso  1.000000 O
   O22         1.0     0.234343     0.856907     0.399702    Biso  1.000000 O
   O23         1.0     0.734343     0.643093     0.600298    Biso  1.000000 O
   O24         1.0     0.765657     0.356907     0.100298    Biso  1.000000 O
   O25         1.0     0.067286     0.601372     0.227536    Biso  1.000000 O
   O26         1.0     0.432714     0.398628     0.727536    Biso  1.000000 O
   O27         1.0     0.932714     0.101372     0.272464    Biso  1.000000 O
   O28         1.0     0.567286     0.898628     0.772464    Biso  1.000000 O
   N1          1.0     0.024672     0.431923     0.247182    Biso  1.000000 N
   N2          1.0     0.475328     0.568077     0.747963    Biso  1.000000 N
   N3          1.0     0.975328     0.931923     0.252037    Biso  1.000000 N
   N4          1.0     0.524672     0.068077     0.752037    Biso  1.000000 N
