
#======================================================================
# CRYSTAL DATA
#----------------------------------------------------------------------
data_VESTA_phase_1

_chemical_name_common                  'crystal                               '
_cell_length_a                         7.799051
_cell_length_b                         8.039114
_cell_length_c                         13.058002
_cell_angle_alpha                      90.000000
_cell_angle_beta                       90.000000
_cell_angle_gamma                      90.000000
_cell_volume                           818.703509
_space_group_name_H-M_alt              'P 1'
_space_group_IT_number                 1

loop_
_space_group_symop_operation_xyz
   'x, y, z'

loop_
   _atom_site_label
   _atom_site_occupancy
   _atom_site_fract_x
   _atom_site_fract_y
   _atom_site_fract_z
   _atom_site_adp_type
   _atom_site_B_iso_or_equiv
   _atom_site_type_symbol
   Mn1         1.0     0.561245     0.493084     0.085807    Biso  1.000000 Mn
   Mn2         1.0     0.938755     0.506916     0.585807    Biso  1.000000 Mn
   Mn3         1.0     0.438755     0.993084     0.414193    Biso  1.000000 Mn
   Mn4         1.0     0.061245     0.006916     0.914193    Biso  1.000000 Mn
   C1          1.0     0.410240     0.219923     0.233052    Biso  1.000000 C
   C2          1.0     0.089760     0.780077     0.733052    Biso  1.000000 C
   C3          1.0     0.589760     0.719923     0.266948    Biso  1.000000 C
   C4          1.0     0.910240     0.280077     0.766948    Biso  1.000000 C
   C5          1.0     0.318702     0.788519     0.032811    Biso  1.000000 C
   C6          1.0     0.181298     0.211481     0.532811    Biso  1.000000 C
   C7          1.0     0.681298     0.288519     0.467189    Biso  1.000000 C
   C8          1.0     0.818702     0.711481     0.967189    Biso  1.000000 C
   C9          1.0     0.309334     0.287578     0.958072    Biso  1.000000 C
   C10         1.0     0.190666     0.712422     0.458072    Biso  1.000000 C
   C11         1.0     0.690666     0.787578     0.541928    Biso  1.000000 C
   C12         1.0     0.809334     0.212422     0.041928    Biso  1.000000 C
   H1          1.0     0.533322     0.159026     0.214518    Biso  1.000000 H
   H2          1.0     0.966678     0.840974     0.714518    Biso  1.000000 H
   H3          1.0     0.466678     0.659026     0.285482    Biso  1.000000 H
   H4          1.0     0.033322     0.340974     0.785482    Biso  1.000000 H
   H5          1.0     0.406439     0.814740     0.967889    Biso  1.000000 H
   H6          1.0     0.093561     0.185259     0.467889    Biso  1.000000 H
   H7          1.0     0.593561     0.314741     0.532111    Biso  1.000000 H
   H8          1.0     0.906439     0.685260     0.032111    Biso  1.000000 H
   H9          1.0     0.215342     0.318263     0.018742    Biso  1.000000 H
   H10         1.0     0.284658     0.681737     0.518742    Biso  1.000000 H
   H11         1.0     0.784658     0.818263     0.481258    Biso  1.000000 H
   H12         1.0     0.715342     0.181737     0.981258    Biso  1.000000 H
   H13         1.0     0.202178     0.452207     0.217324    Biso  1.000000 H
   H14         1.0     0.297822     0.547793     0.717324    Biso  1.000000 H
   H15         1.0     0.797822     0.952207     0.282676    Biso  1.000000 H
   H16         1.0     0.702178     0.047793     0.782676    Biso  1.000000 H
   H17         1.0     0.080598     0.252299     0.279085    Biso  1.000000 H
   H18         1.0     0.419402     0.747701     0.779085    Biso  1.000000 H
   H19         1.0     0.919402     0.752299     0.220915    Biso  1.000000 H
   H20         1.0     0.580598     0.247701     0.720915    Biso  1.000000 H
   H21         1.0     0.904161     0.321945     0.211192    Biso  1.000000 H
   H22         1.0     0.595839     0.678055     0.711192    Biso  1.000000 H
   H23         1.0     0.095839     0.821945     0.288808    Biso  1.000000 H
   H24         1.0     0.404161     0.178055     0.788808    Biso  1.000000 H
   H25         1.0     0.931159     0.373224     0.339023    Biso  1.000000 H
   H26         1.0     0.568841     0.626776     0.839023    Biso  1.000000 H
   H27         1.0     0.068841     0.873224     0.160977    Biso  1.000000 H
   H28         1.0     0.431159     0.126776     0.660977    Biso  1.000000 H
   O1          1.0     0.382452     0.361424     0.191924    Biso  1.000000 O
   O2          1.0     0.117548     0.638576     0.691924    Biso  1.000000 O
   O3          1.0     0.617548     0.861424     0.308076    Biso  1.000000 O
   O4          1.0     0.882452     0.138576     0.808076    Biso  1.000000 O
   O5          1.0     0.306918     0.147198     0.293236    Biso  1.000000 O
   O6          1.0     0.193082     0.852802     0.793236    Biso  1.000000 O
   O7          1.0     0.693082     0.647198     0.206764    Biso  1.000000 O
   O8          1.0     0.806918     0.352802     0.706764    Biso  1.000000 O
   O9          1.0     0.357084     0.674112     0.094709    Biso  1.000000 O
   O10         1.0     0.142916     0.325888     0.594709    Biso  1.000000 O
   O11         1.0     0.642916     0.174112     0.405291    Biso  1.000000 O
   O12         1.0     0.857084     0.825888     0.905291    Biso  1.000000 O
   O13         1.0     0.184325     0.878393     0.040009    Biso  1.000000 O
   O14         1.0     0.315675     0.121607     0.540009    Biso  1.000000 O
   O15         1.0     0.815675     0.378393     0.459991    Biso  1.000000 O
   O16         1.0     0.684325     0.621607     0.959991    Biso  1.000000 O
   O17         1.0     0.457262     0.350019     0.961359    Biso  1.000000 O
   O18         1.0     0.042738     0.649981     0.461359    Biso  1.000000 O
   O19         1.0     0.542738     0.850019     0.538641    Biso  1.000000 O
   O20         1.0     0.957262     0.149981     0.038641    Biso  1.000000 O
   O21         1.0     0.259566     0.187545     0.887704    Biso  1.000000 O
   O22         1.0     0.240434     0.812455     0.387704    Biso  1.000000 O
   O23         1.0     0.740434     0.687545     0.612296    Biso  1.000000 O
   O24         1.0     0.759566     0.312455     0.112296    Biso  1.000000 O
   O25         1.0     0.085019     0.495468     0.238744    Biso  1.000000 O
   O26         1.0     0.414981     0.504532     0.738744    Biso  1.000000 O
   O27         1.0     0.914981     0.995468     0.261256    Biso  1.000000 O
   O28         1.0     0.585019     0.004531     0.761256    Biso  1.000000 O
   N1          1.0     0.994215     0.350341     0.268516    Biso  1.000000 N
   N2          1.0     0.505785     0.649659     0.769282    Biso  1.000000 N
   N3          1.0     0.005785     0.850341     0.230719    Biso  1.000000 N
   N4          1.0     0.494215     0.149659     0.730718    Biso  1.000000 N
