
#======================================================================
# CRYSTAL DATA
#----------------------------------------------------------------------
data_VESTA_phase_1

_chemical_name_common                  'HONH3-Co-(HCOO)3                                '
_cell_length_a                         7.673061
_cell_length_b                         7.818343
_cell_length_c                         12.997362
_cell_angle_alpha                      90.000000
_cell_angle_beta                       90.000000
_cell_angle_gamma                      90.000000
_cell_volume                           779.719807
_space_group_name_H-M_alt              'P 1'
_space_group_IT_number                 1

loop_
_space_group_symop_operation_xyz
   'x, y, z'

loop_
   _atom_site_label
   _atom_site_occupancy
   _atom_site_fract_x
   _atom_site_fract_y
   _atom_site_fract_z
   _atom_site_adp_type
   _atom_site_B_iso_or_equiv
   _atom_site_type_symbol
   Co1         1.0     0.553706     0.493693     0.084688    Biso  1.000000 Co
   Co2         1.0     0.946294     0.506307     0.584688    Biso  1.000000 Co
   Co3         1.0     0.446294     0.993693     0.415312    Biso  1.000000 Co
   Co4         1.0     0.053706     0.006307     0.915312    Biso  1.000000 Co
   C1          1.0     0.426302     0.225727     0.239028    Biso  1.000000 C
   C2          1.0     0.073698     0.774273     0.739028    Biso  1.000000 C
   C3          1.0     0.573698     0.725727     0.260972    Biso  1.000000 C
   C4          1.0     0.926302     0.274273     0.760972    Biso  1.000000 C
   C5          1.0     0.307572     0.780702     0.025739    Biso  1.000000 C
   C6          1.0     0.192428     0.219298     0.525739    Biso  1.000000 C
   C7          1.0     0.692428     0.280702     0.474261    Biso  1.000000 C
   C8          1.0     0.807572     0.719298     0.974261    Biso  1.000000 C
   C9          1.0     0.311103     0.271964     0.966417    Biso  1.000000 C
   C10         1.0     0.188897     0.728036     0.466417    Biso  1.000000 C
   C11         1.0     0.688897     0.771964     0.533583    Biso  1.000000 C
   C12         1.0     0.811103     0.228036     0.033583    Biso  1.000000 C
   H1          1.0     0.556020     0.169802     0.225215    Biso  1.000000 H
   H2          1.0     0.943980     0.830198     0.725215    Biso  1.000000 H
   H3          1.0     0.443980     0.669802     0.274785    Biso  1.000000 H
   H4          1.0     0.056020     0.330198     0.774785    Biso  1.000000 H
   H5          1.0     0.390360     0.801352     0.957220    Biso  1.000000 H
   H6          1.0     0.109640     0.198648     0.457220    Biso  1.000000 H
   H7          1.0     0.609640     0.301352     0.542780    Biso  1.000000 H
   H8          1.0     0.890360     0.698648     0.042780    Biso  1.000000 H
   H9          1.0     0.226866     0.282349     0.034981    Biso  1.000000 H
   H10         1.0     0.273134     0.717651     0.534981    Biso  1.000000 H
   H11         1.0     0.773134     0.782349     0.465019    Biso  1.000000 H
   H12         1.0     0.726866     0.217651     0.965019    Biso  1.000000 H
   H13         1.0     0.205664     0.456470     0.214086    Biso  1.000000 H
   H14         1.0     0.294336     0.543530     0.714086    Biso  1.000000 H
   H15         1.0     0.794336     0.956470     0.285914    Biso  1.000000 H
   H16         1.0     0.705664     0.043530     0.785914    Biso  1.000000 H
   H17         1.0     0.079938     0.252804     0.277336    Biso  1.000000 H
   H18         1.0     0.420062     0.747196     0.777336    Biso  1.000000 H
   H19         1.0     0.920062     0.752804     0.222664    Biso  1.000000 H
   H20         1.0     0.579938     0.247196     0.722664    Biso  1.000000 H
   H21         1.0     0.899935     0.324996     0.210763    Biso  1.000000 H
   H22         1.0     0.600065     0.675004     0.710763    Biso  1.000000 H
   H23         1.0     0.100065     0.824996     0.289237    Biso  1.000000 H
   H24         1.0     0.399935     0.175004     0.789237    Biso  1.000000 H
   H25         1.0     0.933103     0.379340     0.338935    Biso  1.000000 H
   H26         1.0     0.566897     0.620660     0.838935    Biso  1.000000 H
   H27         1.0     0.066897     0.879340     0.161065    Biso  1.000000 H
   H28         1.0     0.433103     0.120660     0.661065    Biso  1.000000 H
   O1          1.0     0.391291     0.366018     0.193061    Biso  1.000000 O
   O2          1.0     0.108709     0.633982     0.693061    Biso  1.000000 O
   O3          1.0     0.608709     0.866018     0.306939    Biso  1.000000 O
   O4          1.0     0.891291     0.133982     0.806939    Biso  1.000000 O
   O5          1.0     0.320876     0.149590     0.298601    Biso  1.000000 O
   O6          1.0     0.179124     0.850410     0.798601    Biso  1.000000 O
   O7          1.0     0.679124     0.649590     0.201399    Biso  1.000000 O
   O8          1.0     0.820876     0.350410     0.701399    Biso  1.000000 O
   O9          1.0     0.348164     0.665333     0.089282    Biso  1.000000 O
   O10         1.0     0.151836     0.334667     0.589282    Biso  1.000000 O
   O11         1.0     0.651836     0.165333     0.410718    Biso  1.000000 O
   O12         1.0     0.848164     0.834667     0.910718    Biso  1.000000 O
   O13         1.0     0.174936     0.877548     0.036681    Biso  1.000000 O
   O14         1.0     0.325064     0.122452     0.536681    Biso  1.000000 O
   O15         1.0     0.825064     0.377548     0.463319    Biso  1.000000 O
   O16         1.0     0.674936     0.622452     0.963319    Biso  1.000000 O
   O17         1.0     0.452961     0.353068     0.962745    Biso  1.000000 O
   O18         1.0     0.047039     0.646932     0.462745    Biso  1.000000 O
   O19         1.0     0.547039     0.853068     0.537255    Biso  1.000000 O
   O20         1.0     0.952961     0.146932     0.037255    Biso  1.000000 O
   O21         1.0     0.257699     0.175627     0.893151    Biso  1.000000 O
   O22         1.0     0.242301     0.824373     0.393151    Biso  1.000000 O
   O23         1.0     0.742301     0.675627     0.606849    Biso  1.000000 O
   O24         1.0     0.757699     0.324373     0.106849    Biso  1.000000 O
   O25         1.0     0.086053     0.501427     0.234221    Biso  1.000000 O
   O26         1.0     0.413947     0.498573     0.734221    Biso  1.000000 O
   O27         1.0     0.913947     0.001427     0.265779    Biso  1.000000 O
   O28         1.0     0.586053     0.998573     0.765779    Biso  1.000000 O
   N1          1.0     0.993548     0.354391     0.267029    Biso  1.000000 N
   N2          1.0     0.506452     0.645609     0.767799    Biso  1.000000 N
   N3          1.0     0.006452     0.854391     0.232201    Biso  1.000000 N
   N4          1.0     0.493548     0.145609     0.732201    Biso  1.000000 N
