
#======================================================================
# CRYSTAL DATA
#----------------------------------------------------------------------
data_VESTA_phase_1

_chemical_name_common                  'C(NH2)3-Co-(HCOO)3                    '
_cell_length_a                         8.278371
_cell_length_b                         11.639589
_cell_length_c                         8.990769
_cell_angle_alpha                      90.000000
_cell_angle_beta                       90.000000
_cell_angle_gamma                      90.000000
_cell_volume                           866.322100
_space_group_name_H-M_alt              'P 1'
_space_group_IT_number                 1

loop_
_space_group_symop_operation_xyz
   'x, y, z'

loop_
   _atom_site_label
   _atom_site_occupancy
   _atom_site_fract_x
   _atom_site_fract_y
   _atom_site_fract_z
   _atom_site_adp_type
   _atom_site_B_iso_or_equiv
   _atom_site_type_symbol
   Co1         1.0     0.260839     0.250000     0.250000    Biso  1.000000 Co
   Co2         1.0     0.239161     0.750000     0.250000    Biso  1.000000 Co
   Co3         1.0     0.739161     0.750000     0.750000    Biso  1.000000 Co
   Co4         1.0     0.760839     0.250000     0.750000    Biso  1.000000 Co
   C1          1.0     0.250000     0.500000     0.304033    Biso  1.000000 C
   C2          1.0     0.250000     0.000000     0.195967    Biso  1.000000 C
   C3          1.0     0.750000     0.500000     0.695967    Biso  1.000000 C
   C4          1.0     0.750000     0.000000     0.804033    Biso  1.000000 C
   C5          1.0     0.530880     0.218455     0.483108    Biso  1.000000 C
   C6          1.0     0.969120     0.781545     0.483108    Biso  1.000000 C
   C7          1.0     0.530880     0.281545     0.016891    Biso  1.000000 C
   C8          1.0     0.969120     0.718455     0.016891    Biso  1.000000 C
   C9          1.0     0.469120     0.781545     0.516891    Biso  1.000000 C
   C10         1.0     0.030880     0.218455     0.516891    Biso  1.000000 C
   C11         1.0     0.469120     0.718455     0.983109    Biso  1.000000 C
   C12         1.0     0.030880     0.281545     0.983109    Biso  1.000000 C
   C13         1.0     0.250000     0.500000     0.759159    Biso  1.000000 C
   C14         1.0     0.250000     0.000000     0.740841    Biso  1.000000 C
   C15         1.0     0.750000     0.500000     0.240841    Biso  1.000000 C
   C16         1.0     0.750000     0.000000     0.259159    Biso  1.000000 C
   H1          1.0     0.250000     0.500000     0.181964    Biso  1.000000 H
   H2          1.0     0.250000     0.000000     0.318036    Biso  1.000000 H
   H3          1.0     0.750000     0.500000     0.818036    Biso  1.000000 H
   H4          1.0     0.750000     0.000000     0.681964    Biso  1.000000 H
   H5          1.0     0.330296     0.417071     0.571949    Biso  1.000000 H
   H6          1.0     0.169704     0.582928     0.571949    Biso  1.000000 H
   H7          1.0     0.330296     0.082929     0.928051    Biso  1.000000 H
   H8          1.0     0.169704     0.917072     0.928051    Biso  1.000000 H
   H9          1.0     0.669704     0.582928     0.428051    Biso  1.000000 H
   H10         1.0     0.830296     0.417071     0.428051    Biso  1.000000 H
   H11         1.0     0.669704     0.917072     0.071949    Biso  1.000000 H
   H12         1.0     0.830296     0.082929     0.071949    Biso  1.000000 H
   H13         1.0     0.423575     0.376092     0.743485    Biso  1.000000 H
   H14         1.0     0.076425     0.623908     0.743485    Biso  1.000000 H
   H15         1.0     0.423575     0.123908     0.756515    Biso  1.000000 H
   H16         1.0     0.076425     0.876092     0.756515    Biso  1.000000 H
   H17         1.0     0.576425     0.623908     0.256515    Biso  1.000000 H
   H18         1.0     0.923575     0.376092     0.256515    Biso  1.000000 H
   H19         1.0     0.576425     0.876092     0.243485    Biso  1.000000 H
   H20         1.0     0.923575     0.123908     0.243485    Biso  1.000000 H
   H21         1.0     0.606945     0.282019     0.424051    Biso  1.000000 H
   H22         1.0     0.893055     0.717981     0.424051    Biso  1.000000 H
   H23         1.0     0.606945     0.217981     0.075949    Biso  1.000000 H
   H24         1.0     0.893055     0.782019     0.075949    Biso  1.000000 H
   H25         1.0     0.393055     0.717981     0.575949    Biso  1.000000 H
   H26         1.0     0.106945     0.282019     0.575949    Biso  1.000000 H
   H27         1.0     0.393055     0.782019     0.924051    Biso  1.000000 H
   H28         1.0     0.106945     0.217981     0.924051    Biso  1.000000 H
   H29         1.0     0.311659     0.437534     0.964954    Biso  1.000000 H
   H30         1.0     0.188341     0.562466     0.964954    Biso  1.000000 H
   H31         1.0     0.311659     0.062466     0.535046    Biso  1.000000 H
   H32         1.0     0.188341     0.937534     0.535046    Biso  1.000000 H
   H33         1.0     0.688341     0.562466     0.035046    Biso  1.000000 H
   H34         1.0     0.811659     0.437534     0.035046    Biso  1.000000 H
   H35         1.0     0.688341     0.937534     0.464954    Biso  1.000000 H
   H36         1.0     0.811659     0.062466     0.464954    Biso  1.000000 H
   N1          1.0     0.342550     0.424884     0.684963    Biso  1.000000 N
   N2          1.0     0.157450     0.575116     0.684963    Biso  1.000000 N
   N3          1.0     0.342550     0.075116     0.815037    Biso  1.000000 N
   N4          1.0     0.157450     0.924884     0.815037    Biso  1.000000 N
   N5          1.0     0.657450     0.575116     0.315037    Biso  1.000000 N
   N6          1.0     0.842550     0.424884     0.315037    Biso  1.000000 N
   N7          1.0     0.657450     0.924884     0.184963    Biso  1.000000 N
   N8          1.0     0.842550     0.075116     0.184963    Biso  1.000000 N
   N9          1.0     0.250000     0.500000     0.907433    Biso  1.000000 N
   N10         1.0     0.250000     0.000000     0.592567    Biso  1.000000 N
   N11         1.0     0.750000     0.500000     0.092567    Biso  1.000000 N
   N12         1.0     0.750000     0.000000     0.407433    Biso  1.000000 N
   O1          1.0     0.267931     0.404456     0.370554    Biso  1.000000 O
   O2          1.0     0.232069     0.595544     0.370554    Biso  1.000000 O
   O3          1.0     0.267931     0.095544     0.129446    Biso  1.000000 O
   O4          1.0     0.232069     0.904456     0.129446    Biso  1.000000 O
   O5          1.0     0.732069     0.595544     0.629446    Biso  1.000000 O
   O6          1.0     0.767931     0.404456     0.629446    Biso  1.000000 O
   O7          1.0     0.732069     0.904456     0.870554    Biso  1.000000 O
   O8          1.0     0.767931     0.095544     0.870554    Biso  1.000000 O
   O9          1.0     0.408211     0.177692     0.416700    Biso  1.000000 O
   O10         1.0     0.091789     0.822308     0.416700    Biso  1.000000 O
   O11         1.0     0.408211     0.322308     0.083300    Biso  1.000000 O
   O12         1.0     0.091789     0.677692     0.083300    Biso  1.000000 O
   O13         1.0     0.591789     0.822308     0.583300    Biso  1.000000 O
   O14         1.0     0.908211     0.177692     0.583300    Biso  1.000000 O
   O15         1.0     0.591789     0.677692     0.916700    Biso  1.000000 O
   O16         1.0     0.908211     0.322308     0.916700    Biso  1.000000 O
   O17         1.0     0.569609     0.190478     0.615011    Biso  1.000000 O
   O18         1.0     0.930391     0.809522     0.615011    Biso  1.000000 O
   O19         1.0     0.569609     0.309522     0.884989    Biso  1.000000 O
   O20         1.0     0.930391     0.690478     0.884989    Biso  1.000000 O
   O21         1.0     0.430391     0.809522     0.384989    Biso  1.000000 O
   O22         1.0     0.069609     0.190478     0.384989    Biso  1.000000 O
   O23         1.0     0.430391     0.690478     0.115011    Biso  1.000000 O
   O24         1.0     0.069609     0.309522     0.115011    Biso  1.000000 O
