
#======================================================================
# CRYSTAL DATA
#----------------------------------------------------------------------
data_VESTA_phase_1

_chemical_name_common                  'C(NH2)3-Ni(HCOO)3                             '
_cell_length_a                         8.238176
_cell_length_b                         11.627378
_cell_length_c                         8.908523
_cell_angle_alpha                      90.000000
_cell_angle_beta                       90.000000
_cell_angle_gamma                      90.000000
_cell_volume                           853.333075
_space_group_name_H-M_alt              'P 1'
_space_group_IT_number                 1

loop_
_space_group_symop_operation_xyz
   'x, y, z'

loop_
   _atom_site_label
   _atom_site_occupancy
   _atom_site_fract_x
   _atom_site_fract_y
   _atom_site_fract_z
   _atom_site_adp_type
   _atom_site_B_iso_or_equiv
   _atom_site_type_symbol
   Ni1         1.0     0.262369     0.250000     0.250000    Biso  1.000000 Ni
   Ni2         1.0     0.237631     0.750000     0.250000    Biso  1.000000 Ni
   Ni3         1.0     0.737631     0.750000     0.750000    Biso  1.000000 Ni
   Ni4         1.0     0.762369     0.250000     0.750000    Biso  1.000000 Ni
   C1          1.0     0.250000     0.500000     0.302738    Biso  1.000000 C
   C2          1.0     0.250000     0.000000     0.197262    Biso  1.000000 C
   C3          1.0     0.750000     0.500000     0.697262    Biso  1.000000 C
   C4          1.0     0.750000     0.000000     0.802738    Biso  1.000000 C
   C5          1.0     0.531761     0.221848     0.483938    Biso  1.000000 C
   C6          1.0     0.968239     0.778152     0.483938    Biso  1.000000 C
   C7          1.0     0.531761     0.278152     0.016062    Biso  1.000000 C
   C8          1.0     0.968239     0.721848     0.016062    Biso  1.000000 C
   C9          1.0     0.468239     0.778152     0.516062    Biso  1.000000 C
   C10         1.0     0.031761     0.221848     0.516062    Biso  1.000000 C
   C11         1.0     0.468239     0.721848     0.983938    Biso  1.000000 C
   C12         1.0     0.031761     0.278152     0.983938    Biso  1.000000 C
   C13         1.0     0.250000     0.500000     0.758909    Biso  1.000000 C
   C14         1.0     0.250000     0.000000     0.741091    Biso  1.000000 C
   C15         1.0     0.750000     0.500000     0.241091    Biso  1.000000 C
   C16         1.0     0.750000     0.000000     0.258909    Biso  1.000000 C
   H1          1.0     0.250000     0.500000     0.179750    Biso  1.000000 H
   H2          1.0     0.250000     0.000000     0.320250    Biso  1.000000 H
   H3          1.0     0.750000     0.500000     0.820250    Biso  1.000000 H
   H4          1.0     0.750000     0.000000     0.679750    Biso  1.000000 H
   H5          1.0     0.428497     0.378874     0.743077    Biso  1.000000 H
   H6          1.0     0.071503     0.621126     0.743077    Biso  1.000000 H
   H7          1.0     0.428497     0.121126     0.756923    Biso  1.000000 H
   H8          1.0     0.071503     0.878874     0.756923    Biso  1.000000 H
   H9          1.0     0.571503     0.621126     0.256923    Biso  1.000000 H
   H10         1.0     0.928497     0.378874     0.256923    Biso  1.000000 H
   H11         1.0     0.571503     0.878874     0.243077    Biso  1.000000 H
   H12         1.0     0.928497     0.121126     0.243077    Biso  1.000000 H
   H13         1.0     0.332681     0.418197     0.570148    Biso  1.000000 H
   H14         1.0     0.167319     0.581803     0.570148    Biso  1.000000 H
   H15         1.0     0.332681     0.081803     0.929852    Biso  1.000000 H
   H16         1.0     0.167319     0.918197     0.929852    Biso  1.000000 H
   H17         1.0     0.667319     0.581803     0.429852    Biso  1.000000 H
   H18         1.0     0.832681     0.418197     0.429852    Biso  1.000000 H
   H19         1.0     0.667319     0.918197     0.070148    Biso  1.000000 H
   H20         1.0     0.832681     0.081803     0.070148    Biso  1.000000 H
   H21         1.0     0.602956     0.291050     0.429932    Biso  1.000000 H
   H22         1.0     0.897044     0.708950     0.429932    Biso  1.000000 H
   H23         1.0     0.602956     0.208950     0.070068    Biso  1.000000 H
   H24         1.0     0.897044     0.791050     0.070068    Biso  1.000000 H
   H25         1.0     0.397044     0.708950     0.570068    Biso  1.000000 H
   H26         1.0     0.102956     0.291050     0.570068    Biso  1.000000 H
   H27         1.0     0.397044     0.791050     0.929932    Biso  1.000000 H
   H28         1.0     0.102956     0.208950     0.929932    Biso  1.000000 H
   H29         1.0     0.185897     0.561288     0.966546    Biso  1.000000 H
   H30         1.0     0.314103     0.438712     0.966546    Biso  1.000000 H
   H31         1.0     0.185897     0.938712     0.533454    Biso  1.000000 H
   H32         1.0     0.314103     0.061288     0.533454    Biso  1.000000 H
   H33         1.0     0.814103     0.438712     0.033454    Biso  1.000000 H
   H34         1.0     0.685897     0.561288     0.033454    Biso  1.000000 H
   H35         1.0     0.814103     0.061288     0.466546    Biso  1.000000 H
   H36         1.0     0.685897     0.938712     0.466546    Biso  1.000000 H
   N1          1.0     0.346024     0.426814     0.684025    Biso  1.000000 N
   N2          1.0     0.153976     0.573186     0.684025    Biso  1.000000 N
   N3          1.0     0.346024     0.073186     0.815975    Biso  1.000000 N
   N4          1.0     0.153976     0.926814     0.815975    Biso  1.000000 N
   N5          1.0     0.653977     0.573186     0.315975    Biso  1.000000 N
   N6          1.0     0.846023     0.426814     0.315975    Biso  1.000000 N
   N7          1.0     0.653977     0.926814     0.184025    Biso  1.000000 N
   N8          1.0     0.846023     0.073186     0.184025    Biso  1.000000 N
   N9          1.0     0.250000     0.500000     0.908541    Biso  1.000000 N
   N10         1.0     0.250000     0.000000     0.591459    Biso  1.000000 N
   N11         1.0     0.750000     0.500000     0.091459    Biso  1.000000 N
   N12         1.0     0.750000     0.000000     0.408541    Biso  1.000000 N
   O1          1.0     0.263672     0.404144     0.370170    Biso  1.000000 O
   O2          1.0     0.236328     0.595856     0.370170    Biso  1.000000 O
   O3          1.0     0.263672     0.095856     0.129830    Biso  1.000000 O
   O4          1.0     0.236328     0.904144     0.129830    Biso  1.000000 O
   O5          1.0     0.736328     0.595856     0.629830    Biso  1.000000 O
   O6          1.0     0.763672     0.404144     0.629830    Biso  1.000000 O
   O7          1.0     0.736328     0.904144     0.870170    Biso  1.000000 O
   O8          1.0     0.763672     0.095856     0.870170    Biso  1.000000 O
   O9          1.0     0.412691     0.178576     0.413105    Biso  1.000000 O
   O10         1.0     0.087309     0.821424     0.413105    Biso  1.000000 O
   O11         1.0     0.412691     0.321424     0.086895    Biso  1.000000 O
   O12         1.0     0.087309     0.678576     0.086895    Biso  1.000000 O
   O13         1.0     0.587309     0.821424     0.586895    Biso  1.000000 O
   O14         1.0     0.912691     0.178576     0.586895    Biso  1.000000 O
   O15         1.0     0.587309     0.678576     0.913105    Biso  1.000000 O
   O16         1.0     0.912691     0.321424     0.913105    Biso  1.000000 O
   O17         1.0     0.571729     0.189007     0.613807    Biso  1.000000 O
   O18         1.0     0.928271     0.810993     0.614930    Biso  1.000000 O
   O19         1.0     0.571729     0.310993     0.885070    Biso  1.000000 O
   O20         1.0     0.928271     0.689007     0.885070    Biso  1.000000 O
   O21         1.0     0.428271     0.810993     0.385070    Biso  1.000000 O
   O22         1.0     0.071729     0.189007     0.385070    Biso  1.000000 O
   O23         1.0     0.428271     0.689007     0.114930    Biso  1.000000 O
   O24         1.0     0.071729     0.310993     0.114930    Biso  1.000000 O
