
#======================================================================
# CRYSTAL DATA
#----------------------------------------------------------------------
data_VESTA_phase_1

_chemical_name_common                  'C(NH2)3-Mn-(HCOO)3                    '
_cell_length_a                         8.418067
_cell_length_b                         11.914192
_cell_length_c                         9.121886
_cell_angle_alpha                      90.000000
_cell_angle_beta                       90.000000
_cell_angle_gamma                      90.000000
_cell_volume                           914.874728
_space_group_name_H-M_alt              'P 1'
_space_group_IT_number                 1

loop_
_space_group_symop_operation_xyz
   'x, y, z'

loop_
   _atom_site_label
   _atom_site_occupancy
   _atom_site_fract_x
   _atom_site_fract_y
   _atom_site_fract_z
   _atom_site_adp_type
   _atom_site_B_iso_or_equiv
   _atom_site_type_symbol
   Mn1         1.0     0.261211     0.250000     0.250000    Biso  1.000000 Mn
   Mn2         1.0     0.238789     0.750000     0.250000    Biso  1.000000 Mn
   Mn3         1.0     0.738789     0.750000     0.750000    Biso  1.000000 Mn
   Mn4         1.0     0.761211     0.250000     0.750000    Biso  1.000000 Mn
   O1          1.0     0.266663     0.406242     0.379127    Biso  1.000000 O
   O2          1.0     0.233337     0.593758     0.379127    Biso  1.000000 O
   O3          1.0     0.233337     0.906242     0.120873    Biso  1.000000 O
   O4          1.0     0.266663     0.093758     0.120873    Biso  1.000000 O
   O5          1.0     0.733337     0.593758     0.620873    Biso  1.000000 O
   O6          1.0     0.766663     0.406242     0.620873    Biso  1.000000 O
   O7          1.0     0.766663     0.093758     0.879127    Biso  1.000000 O
   O8          1.0     0.733337     0.906242     0.879127    Biso  1.000000 O
   O9          1.0     0.411029     0.173780     0.414434    Biso  1.000000 O
   O10         1.0     0.088971     0.826220     0.414434    Biso  1.000000 O
   O11         1.0     0.088971     0.673780     0.085566    Biso  1.000000 O
   O12         1.0     0.411029     0.326220     0.085566    Biso  1.000000 O
   O13         1.0     0.588971     0.826220     0.585566    Biso  1.000000 O
   O14         1.0     0.911029     0.173780     0.585566    Biso  1.000000 O
   O15         1.0     0.911029     0.326220     0.914434    Biso  1.000000 O
   O16         1.0     0.588971     0.673780     0.914434    Biso  1.000000 O
   O17         1.0     0.561761     0.190610     0.615594    Biso  1.000000 O
   O18         1.0     0.938239     0.809390     0.615594    Biso  1.000000 O
   O19         1.0     0.938239     0.690610     0.884406    Biso  1.000000 O
   O20         1.0     0.561761     0.309390     0.884406    Biso  1.000000 O
   O21         1.0     0.438239     0.809390     0.384406    Biso  1.000000 O
   O22         1.0     0.061761     0.190610     0.384406    Biso  1.000000 O
   O23         1.0     0.061761     0.309390     0.115594    Biso  1.000000 O
   O24         1.0     0.438239     0.690610     0.115594    Biso  1.000000 O
   C1          1.0     0.250000     0.500000     0.314670    Biso  1.000000 C
   C2          1.0     0.250000     0.000000     0.185330    Biso  1.000000 C
   C3          1.0     0.750000     0.500000     0.685330    Biso  1.000000 C
   C4          1.0     0.750000     0.000000     0.814670    Biso  1.000000 C
   C5          1.0     0.529658     0.213612     0.483094    Biso  1.000000 C
   C6          1.0     0.970342     0.786388     0.483094    Biso  1.000000 C
   C7          1.0     0.970342     0.713612     0.016906    Biso  1.000000 C
   C8          1.0     0.529658     0.286388     0.016906    Biso  1.000000 C
   C9          1.0     0.470342     0.786388     0.516906    Biso  1.000000 C
   C10         1.0     0.029658     0.213612     0.516906    Biso  1.000000 C
   C11         1.0     0.029658     0.286388     0.983094    Biso  1.000000 C
   C12         1.0     0.470342     0.713612     0.983094    Biso  1.000000 C
   C13         1.0     0.250000     0.500000     0.763848    Biso  1.000000 C
   C14         1.0     0.250000     0.000000     0.736152    Biso  1.000000 C
   C15         1.0     0.750000     0.500000     0.236152    Biso  1.000000 C
   C16         1.0     0.750000     0.000000     0.263848    Biso  1.000000 C
   H1          1.0     0.250000     0.500000     0.193767    Biso  1.000000 H
   H2          1.0     0.250000     0.000000     0.306233    Biso  1.000000 H
   H3          1.0     0.750000     0.500000     0.806233    Biso  1.000000 H
   H4          1.0     0.750000     0.000000     0.693767    Biso  1.000000 H
   H5          1.0     0.609200     0.272417     0.424020    Biso  1.000000 H
   H6          1.0     0.890800     0.727583     0.424020    Biso  1.000000 H
   H7          1.0     0.890800     0.772417     0.075980    Biso  1.000000 H
   H8          1.0     0.609200     0.227583     0.075980    Biso  1.000000 H
   H9          1.0     0.390801     0.727583     0.575980    Biso  1.000000 H
   H10         1.0     0.109199     0.272417     0.575980    Biso  1.000000 H
   H11         1.0     0.109199     0.227583     0.924020    Biso  1.000000 H
   H12         1.0     0.390801     0.772417     0.924020    Biso  1.000000 H
   H13         1.0     0.326710     0.418288     0.579095    Biso  1.000000 H
   H14         1.0     0.173290     0.581712     0.579095    Biso  1.000000 H
   H15         1.0     0.173290     0.918288     0.920905    Biso  1.000000 H
   H16         1.0     0.326710     0.081712     0.920905    Biso  1.000000 H
   H17         1.0     0.673290     0.581712     0.420905    Biso  1.000000 H
   H18         1.0     0.826710     0.418288     0.420905    Biso  1.000000 H
   H19         1.0     0.826710     0.081712     0.079095    Biso  1.000000 H
   H20         1.0     0.673290     0.918288     0.079095    Biso  1.000000 H
   H21         1.0     0.417644     0.376684     0.747930    Biso  1.000000 H
   H22         1.0     0.082356     0.623316     0.747930    Biso  1.000000 H
   H23         1.0     0.082356     0.876684     0.752070    Biso  1.000000 H
   H24         1.0     0.417644     0.123316     0.752070    Biso  1.000000 H
   H25         1.0     0.582356     0.623316     0.252070    Biso  1.000000 H
   H26         1.0     0.917644     0.376684     0.252070    Biso  1.000000 H
   H27         1.0     0.917644     0.123316     0.247930    Biso  1.000000 H
   H28         1.0     0.582356     0.876684     0.247930    Biso  1.000000 H
   H29         1.0     0.189495     0.560894     0.967084    Biso  1.000000 H
   H30         1.0     0.310505     0.439106     0.967084    Biso  1.000000 H
   H31         1.0     0.310505     0.060894     0.532916    Biso  1.000000 H
   H32         1.0     0.189495     0.939106     0.532916    Biso  1.000000 H
   H33         1.0     0.810505     0.439106     0.032916    Biso  1.000000 H
   H34         1.0     0.689495     0.560894     0.032916    Biso  1.000000 H
   H35         1.0     0.689495     0.939106     0.467084    Biso  1.000000 H
   H36         1.0     0.810505     0.060894     0.467084    Biso  1.000000 H
   N1          1.0     0.338364     0.425055     0.690705    Biso  1.000000 N
   N2          1.0     0.161636     0.574945     0.690705    Biso  1.000000 N
   N3          1.0     0.161636     0.925055     0.809295    Biso  1.000000 N
   N4          1.0     0.338364     0.074945     0.809295    Biso  1.000000 N
   N5          1.0     0.661636     0.574945     0.309295    Biso  1.000000 N
   N6          1.0     0.838364     0.425055     0.309295    Biso  1.000000 N
   N7          1.0     0.838364     0.074945     0.190705    Biso  1.000000 N
   N8          1.0     0.661636     0.925055     0.190705    Biso  1.000000 N
   N9          1.0     0.250000     0.500000     0.910319    Biso  1.000000 N
   N10         1.0     0.250000     0.000000     0.589681    Biso  1.000000 N
   N11         1.0     0.750000     0.500000     0.089681    Biso  1.000000 N
   N12         1.0     0.750000     0.000000     0.410319    Biso  1.000000 N
