
#======================================================================
# CRYSTAL DATA
#----------------------------------------------------------------------
data_VESTA_phase_1

_chemical_name_common                  'C(NH2)3-Fe-(HCOO)3                             '
_cell_length_a                         8.347903
_cell_length_b                         11.782746
_cell_length_c                         8.979863
_cell_angle_alpha                      90.000000
_cell_angle_beta                       90.000000
_cell_angle_gamma                      90.000000
_cell_volume                           883.270353
_space_group_name_H-M_alt              'P 1'
_space_group_IT_number                 1

loop_
_space_group_symop_operation_xyz
   'x, y, z'

loop_
   _atom_site_label
   _atom_site_occupancy
   _atom_site_fract_x
   _atom_site_fract_y
   _atom_site_fract_z
   _atom_site_adp_type
   _atom_site_B_iso_or_equiv
   _atom_site_type_symbol
   Fe1         1.0     0.259314     0.250000     0.250000    Biso  1.000000 Fe
   Fe2         1.0     0.240686     0.750000     0.250000    Biso  1.000000 Fe
   Fe3         1.0     0.740686     0.750000     0.750000    Biso  1.000000 Fe
   Fe4         1.0     0.759314     0.250000     0.750000    Biso  1.000000 Fe
   C1          1.0     0.250000     0.500000     0.313059    Biso  1.000000 C
   C2          1.0     0.250000     0.000000     0.186941    Biso  1.000000 C
   C3          1.0     0.750000     0.500000     0.686941    Biso  1.000000 C
   C4          1.0     0.750000     0.000000     0.813059    Biso  1.000000 C
   C5          1.0     0.533306     0.218997     0.481616    Biso  1.000000 C
   C6          1.0     0.966694     0.781003     0.481616    Biso  1.000000 C
   C7          1.0     0.533306     0.281003     0.018384    Biso  1.000000 C
   C8          1.0     0.966694     0.718997     0.018384    Biso  1.000000 C
   C9          1.0     0.466694     0.781003     0.518384    Biso  1.000000 C
   C10         1.0     0.033306     0.218997     0.518384    Biso  1.000000 C
   C11         1.0     0.466694     0.718997     0.981616    Biso  1.000000 C
   C12         1.0     0.033306     0.281003     0.981616    Biso  1.000000 C
   C13         1.0     0.250000     0.500000     0.765497    Biso  1.000000 C
   C14         1.0     0.250000     0.000000     0.734503    Biso  1.000000 C
   C15         1.0     0.750000     0.500000     0.234503    Biso  1.000000 C
   C16         1.0     0.750000     0.000000     0.265497    Biso  1.000000 C
   H1          1.0     0.250000     0.500000     0.190508    Biso  1.000000 H
   H2          1.0     0.250000     0.000000     0.309492    Biso  1.000000 H
   H3          1.0     0.750000     0.500000     0.809492    Biso  1.000000 H
   H4          1.0     0.750000     0.000000     0.690508    Biso  1.000000 H
   H5          1.0     0.327829     0.417712     0.577929    Biso  1.000000 H
   H6          1.0     0.172171     0.582288     0.577929    Biso  1.000000 H
   H7          1.0     0.327829     0.082288     0.922071    Biso  1.000000 H
   H8          1.0     0.172171     0.917712     0.922071    Biso  1.000000 H
   H9          1.0     0.672171     0.582288     0.422071    Biso  1.000000 H
   H10         1.0     0.827829     0.417712     0.422071    Biso  1.000000 H
   H11         1.0     0.672171     0.917712     0.077929    Biso  1.000000 H
   H12         1.0     0.827829     0.082288     0.077929    Biso  1.000000 H
   H13         1.0     0.419961     0.375983     0.749672    Biso  1.000000 H
   H14         1.0     0.080039     0.624017     0.749672    Biso  1.000000 H
   H15         1.0     0.419961     0.124017     0.750328    Biso  1.000000 H
   H16         1.0     0.080039     0.875983     0.750328    Biso  1.000000 H
   H17         1.0     0.580039     0.624017     0.250328    Biso  1.000000 H
   H18         1.0     0.919961     0.375983     0.250328    Biso  1.000000 H
   H19         1.0     0.580039     0.875983     0.249672    Biso  1.000000 H
   H20         1.0     0.919961     0.124017     0.249672    Biso  1.000000 H
   H21         1.0     0.614841     0.278472     0.423741    Biso  1.000000 H
   H22         1.0     0.885159     0.721528     0.423741    Biso  1.000000 H
   H23         1.0     0.614841     0.221528     0.076259    Biso  1.000000 H
   H24         1.0     0.885159     0.778472     0.076259    Biso  1.000000 H
   H25         1.0     0.385159     0.721528     0.576259    Biso  1.000000 H
   H26         1.0     0.114841     0.278472     0.576259    Biso  1.000000 H
   H27         1.0     0.385159     0.778472     0.923741    Biso  1.000000 H
   H28         1.0     0.114841     0.221528     0.923741    Biso  1.000000 H
   H29         1.0     0.189311     0.561764     0.971696    Biso  1.000000 H
   H30         1.0     0.310689     0.438236     0.971696    Biso  1.000000 H
   H31         1.0     0.189311     0.938236     0.528304    Biso  1.000000 H
   H32         1.0     0.310689     0.061764     0.528304    Biso  1.000000 H
   H33         1.0     0.810689     0.438236     0.028304    Biso  1.000000 H
   H34         1.0     0.689311     0.561764     0.028304    Biso  1.000000 H
   H35         1.0     0.810689     0.061764     0.471696    Biso  1.000000 H
   H36         1.0     0.689311     0.938236     0.471696    Biso  1.000000 H
   N1          1.0     0.340006     0.424810     0.691370    Biso  1.000000 N
   N2          1.0     0.159994     0.575190     0.691370    Biso  1.000000 N
   N3          1.0     0.340006     0.075190     0.808630    Biso  1.000000 N
   N4          1.0     0.159994     0.924810     0.808630    Biso  1.000000 N
   N5          1.0     0.659994     0.575190     0.308630    Biso  1.000000 N
   N6          1.0     0.840006     0.424810     0.308630    Biso  1.000000 N
   N7          1.0     0.659994     0.924810     0.191370    Biso  1.000000 N
   N8          1.0     0.840006     0.075190     0.191370    Biso  1.000000 N
   N9          1.0     0.250000     0.500000     0.914357    Biso  1.000000 N
   N10         1.0     0.250000     0.000000     0.585643    Biso  1.000000 N
   N11         1.0     0.750000     0.500000     0.085643    Biso  1.000000 N
   N12         1.0     0.750000     0.000000     0.414357    Biso  1.000000 N
   O1          1.0     0.266471     0.405266     0.378819    Biso  1.000000 O
   O2          1.0     0.233529     0.594734     0.378819    Biso  1.000000 O
   O3          1.0     0.266471     0.094734     0.121181    Biso  1.000000 O
   O4          1.0     0.233529     0.905266     0.121181    Biso  1.000000 O
   O5          1.0     0.733529     0.594734     0.621181    Biso  1.000000 O
   O6          1.0     0.766471     0.405266     0.621181    Biso  1.000000 O
   O7          1.0     0.733529     0.905266     0.878819    Biso  1.000000 O
   O8          1.0     0.766471     0.094734     0.878819    Biso  1.000000 O
   O9          1.0     0.413250     0.180503     0.410912    Biso  1.000000 O
   O10         1.0     0.086750     0.819497     0.410912    Biso  1.000000 O
   O11         1.0     0.413250     0.319497     0.089088    Biso  1.000000 O
   O12         1.0     0.086750     0.680503     0.089088    Biso  1.000000 O
   O13         1.0     0.586750     0.819497     0.589088    Biso  1.000000 O
   O14         1.0     0.913250     0.180503     0.589088    Biso  1.000000 O
   O15         1.0     0.586750     0.680503     0.910912    Biso  1.000000 O
   O16         1.0     0.913250     0.319497     0.910912    Biso  1.000000 O
   O17         1.0     0.564584     0.192716     0.615886    Biso  1.000000 O
   O18         1.0     0.935416     0.807284     0.615886    Biso  1.000000 O
   O19         1.0     0.564584     0.307284     0.884114    Biso  1.000000 O
   O20         1.0     0.935416     0.692716     0.884114    Biso  1.000000 O
   O21         1.0     0.435416     0.807284     0.384114    Biso  1.000000 O
   O22         1.0     0.064584     0.192716     0.384114    Biso  1.000000 O
   O23         1.0     0.435416     0.692716     0.115886    Biso  1.000000 O
   O24         1.0     0.064584     0.307284     0.115886    Biso  1.000000 O
