
#======================================================================
# CRYSTAL DATA
#----------------------------------------------------------------------
data_VESTA_phase_1

_chemical_name_common                  'CH3NH3-Co-(HCOO)3                '
_cell_length_a                         8.177794
_cell_length_b                         11.669392
_cell_length_c                         8.283521
_cell_angle_alpha                      90.000000
_cell_angle_beta                       90.000000
_cell_angle_gamma                      90.000000
_cell_volume                           790.495345
_space_group_name_H-M_alt              'P 1'
_space_group_IT_number                 1

loop_
_space_group_symop_operation_xyz
   'x, y, z'

loop_
   _atom_site_label
   _atom_site_occupancy
   _atom_site_fract_x
   _atom_site_fract_y
   _atom_site_fract_z
   _atom_site_adp_type
   _atom_site_B_iso_or_equiv
   _atom_site_type_symbol
   Co1         1.0     0.500000     0.000000     0.000000    Biso  1.000000 Co
   Co2         1.0     0.000000     0.000000     0.500000    Biso  1.000000 Co
   Co3         1.0     0.500000     0.500000     0.000000    Biso  1.000000 Co
   Co4         1.0     0.000000     0.500000     0.500000    Biso  1.000000 Co
   N1          1.0     0.913238     0.250000     0.030903    Biso  1.000000 N
   N2          1.0     0.586762     0.750000     0.530903    Biso  1.000000 N
   N3          1.0     0.086762     0.750000     0.969097    Biso  1.000000 N
   N4          1.0     0.413238     0.250000     0.469097    Biso  1.000000 N
   C1          1.0     0.717638     0.969598     0.279313    Biso  1.000000 C
   C2          1.0     0.782362     0.030402     0.779313    Biso  1.000000 C
   C3          1.0     0.282362     0.469598     0.720687    Biso  1.000000 C
   C4          1.0     0.217638     0.530402     0.220687    Biso  1.000000 C
   C5          1.0     0.282362     0.030402     0.720687    Biso  1.000000 C
   C6          1.0     0.217638     0.969598     0.220687    Biso  1.000000 C
   C7          1.0     0.717638     0.530402     0.279313    Biso  1.000000 C
   C8          1.0     0.782362     0.469598     0.779313    Biso  1.000000 C
   C9          1.0     0.491392     0.250000     0.055915    Biso  1.000000 C
   C10         1.0     0.008608     0.750000     0.555915    Biso  1.000000 C
   C11         1.0     0.508608     0.750000     0.944085    Biso  1.000000 C
   C12         1.0     0.991392     0.250000     0.444085    Biso  1.000000 C
   C13         1.0     0.085728     0.250000     0.975005    Biso  1.000000 C
   C14         1.0     0.414272     0.750000     0.475005    Biso  1.000000 C
   C15         1.0     0.914272     0.750000     0.024995    Biso  1.000000 C
   C16         1.0     0.585728     0.250000     0.524995    Biso  1.000000 C
   O1          1.0     0.592675     0.927532     0.211903    Biso  1.000000 O
   O2          1.0     0.907325     0.072468     0.711903    Biso  1.000000 O
   O3          1.0     0.407325     0.427532     0.788097    Biso  1.000000 O
   O4          1.0     0.092675     0.572468     0.288097    Biso  1.000000 O
   O5          1.0     0.407325     0.072468     0.788097    Biso  1.000000 O
   O6          1.0     0.092675     0.927532     0.288097    Biso  1.000000 O
   O7          1.0     0.592675     0.572468     0.211903    Biso  1.000000 O
   O8          1.0     0.907325     0.427532     0.711903    Biso  1.000000 O
   O9          1.0     0.767316     0.939759     0.419615    Biso  1.000000 O
   O10         1.0     0.732684     0.060241     0.919615    Biso  1.000000 O
   O11         1.0     0.232684     0.439759     0.580385    Biso  1.000000 O
   O12         1.0     0.267316     0.560241     0.080385    Biso  1.000000 O
   O13         1.0     0.232684     0.060241     0.580385    Biso  1.000000 O
   O14         1.0     0.267316     0.939759     0.080385    Biso  1.000000 O
   O15         1.0     0.767316     0.560241     0.419615    Biso  1.000000 O
   O16         1.0     0.732684     0.439759     0.919615    Biso  1.000000 O
   O17         1.0     0.475883     0.154426     0.127963    Biso  1.000000 O
   O18         1.0     0.024117     0.845574     0.627963    Biso  1.000000 O
   O19         1.0     0.524117     0.654426     0.872037    Biso  1.000000 O
   O20         1.0     0.975883     0.345574     0.372037    Biso  1.000000 O
   O21         1.0     0.524117     0.845574     0.872037    Biso  1.000000 O
   O22         1.0     0.975883     0.154426     0.372037    Biso  1.000000 O
   O23         1.0     0.475883     0.345574     0.127963    Biso  1.000000 O
   O24         1.0     0.024117     0.654426     0.627963    Biso  1.000000 O
   H1          1.0     0.789406     0.035491     0.215299    Biso  1.000000 H
   H2          1.0     0.710594     0.964509     0.715299    Biso  1.000000 H
   H3          1.0     0.210594     0.535491     0.784701    Biso  1.000000 H
   H4          1.0     0.289406     0.464509     0.284701    Biso  1.000000 H
   H5          1.0     0.210594     0.964509     0.784701    Biso  1.000000 H
   H6          1.0     0.289406     0.035491     0.284701    Biso  1.000000 H
   H7          1.0     0.789406     0.464509     0.215299    Biso  1.000000 H
   H8          1.0     0.710594     0.535491     0.715299    Biso  1.000000 H
   H9          1.0     0.517829     0.250000     0.925141    Biso  1.000000 H
   H10         1.0     0.982171     0.750000     0.425141    Biso  1.000000 H
   H11         1.0     0.482171     0.750000     0.074859    Biso  1.000000 H
   H12         1.0     0.017829     0.250000     0.574859    Biso  1.000000 H
   H13         1.0     0.850372     0.322981     0.989042    Biso  1.000000 H
   H14         1.0     0.649628     0.677019     0.489042    Biso  1.000000 H
   H15         1.0     0.149628     0.822981     0.010958    Biso  1.000000 H
   H16         1.0     0.350372     0.177019     0.510958    Biso  1.000000 H
   H17         1.0     0.149628     0.677019     0.010958    Biso  1.000000 H
   H18         1.0     0.350372     0.322981     0.510958    Biso  1.000000 H
   H19         1.0     0.850372     0.177019     0.989042    Biso  1.000000 H
   H20         1.0     0.649628     0.822981     0.489042    Biso  1.000000 H
   H21         1.0     0.911306     0.250000     0.155840    Biso  1.000000 H
   H22         1.0     0.588694     0.750000     0.655840    Biso  1.000000 H
   H23         1.0     0.088694     0.750000     0.844160    Biso  1.000000 H
   H24         1.0     0.411306     0.250000     0.344160    Biso  1.000000 H
   H25         1.0     0.147073     0.326720     0.020600    Biso  1.000000 H
   H26         1.0     0.352927     0.673280     0.520600    Biso  1.000000 H
   H27         1.0     0.852927     0.826720     0.979400    Biso  1.000000 H
   H28         1.0     0.647073     0.173280     0.479400    Biso  1.000000 H
   H29         1.0     0.852927     0.673280     0.979400    Biso  1.000000 H
   H30         1.0     0.647073     0.326720     0.479400    Biso  1.000000 H
   H31         1.0     0.147073     0.173280     0.020600    Biso  1.000000 H
   H32         1.0     0.352927     0.826720     0.520600    Biso  1.000000 H
   H33         1.0     0.087414     0.250000     0.842043    Biso  1.000000 H
   H34         1.0     0.412586     0.750000     0.343250    Biso  1.000000 H
   H35         1.0     0.912586     0.750000     0.156750    Biso  1.000000 H
   H36         1.0     0.587414     0.250000     0.656750    Biso  1.000000 H
