
#======================================================================
# CRYSTAL DATA
#----------------------------------------------------------------------
data_VESTA_phase_1

_chemical_name_common                  'CH3NH3-Mn-(HCOO)3                               '
_cell_length_a                         8.387783
_cell_length_b                         11.930468
_cell_length_c                         8.423064
_cell_angle_alpha                      90.000000
_cell_angle_beta                       90.000000
_cell_angle_gamma                      90.000000
_cell_volume                           842.897503
_space_group_name_H-M_alt              'P 1'
_space_group_IT_number                 1

loop_
_space_group_symop_operation_xyz
   'x, y, z'

loop_
   _atom_site_label
   _atom_site_occupancy
   _atom_site_fract_x
   _atom_site_fract_y
   _atom_site_fract_z
   _atom_site_adp_type
   _atom_site_B_iso_or_equiv
   _atom_site_type_symbol
   Mn1         1.0     0.000000     0.500000     0.000000    Biso  1.000000 Mn
   Mn2         1.0     0.500000     0.500000     0.500000    Biso  1.000000 Mn
   Mn3         1.0     0.000000     0.000000     0.000000    Biso  1.000000 Mn
   Mn4         1.0     0.500000     0.000000     0.500000    Biso  1.000000 Mn
   O1          1.0     0.094617     0.575811     0.215002    Biso  1.000000 O
   O2          1.0     0.405383     0.424189     0.715002    Biso  1.000000 O
   O3          1.0     0.905383     0.075811     0.784998    Biso  1.000000 O
   O4          1.0     0.594617     0.924189     0.284998    Biso  1.000000 O
   O5          1.0     0.905383     0.424189     0.784998    Biso  1.000000 O
   O6          1.0     0.594617     0.575811     0.284998    Biso  1.000000 O
   O7          1.0     0.094617     0.924189     0.215002    Biso  1.000000 O
   O8          1.0     0.405383     0.075811     0.715002    Biso  1.000000 O
   O9          1.0     0.262605     0.563173     0.422032    Biso  1.000000 O
   O10         1.0     0.237395     0.436827     0.922032    Biso  1.000000 O
   O11         1.0     0.737395     0.063173     0.577968    Biso  1.000000 O
   O12         1.0     0.762605     0.936827     0.077968    Biso  1.000000 O
   O13         1.0     0.737395     0.436827     0.577968    Biso  1.000000 O
   O14         1.0     0.762605     0.563173     0.077968    Biso  1.000000 O
   O15         1.0     0.262605     0.936827     0.422032    Biso  1.000000 O
   O16         1.0     0.237395     0.063173     0.922032    Biso  1.000000 O
   O17         1.0     0.969759     0.343750     0.132408    Biso  1.000000 O
   O18         1.0     0.530241     0.656250     0.632408    Biso  1.000000 O
   O19         1.0     0.030241     0.843750     0.867592    Biso  1.000000 O
   O20         1.0     0.469759     0.156250     0.367592    Biso  1.000000 O
   O21         1.0     0.030241     0.656250     0.867592    Biso  1.000000 O
   O22         1.0     0.469759     0.343750     0.367592    Biso  1.000000 O
   O23         1.0     0.969759     0.156250     0.132408    Biso  1.000000 O
   O24         1.0     0.530241     0.843750     0.632408    Biso  1.000000 O
   C1          1.0     0.214369     0.534103     0.283997    Biso  1.000000 C
   C2          1.0     0.285631     0.465897     0.783997    Biso  1.000000 C
   C3          1.0     0.785631     0.034103     0.716003    Biso  1.000000 C
   C4          1.0     0.714369     0.965897     0.216003    Biso  1.000000 C
   C5          1.0     0.785631     0.465897     0.716003    Biso  1.000000 C
   C6          1.0     0.714369     0.534103     0.216003    Biso  1.000000 C
   C7          1.0     0.214369     0.965897     0.283997    Biso  1.000000 C
   C8          1.0     0.285631     0.034103     0.783997    Biso  1.000000 C
   C9          1.0     0.984010     0.250000     0.062295    Biso  1.000000 C
   C10         1.0     0.515990     0.750000     0.562295    Biso  1.000000 C
   C11         1.0     0.015990     0.750000     0.937705    Biso  1.000000 C
   C12         1.0     0.484010     0.250000     0.437705    Biso  1.000000 C
   C13         1.0     0.919653     0.750000     0.475438    Biso  1.000000 C
   C14         1.0     0.580347     0.250000     0.975438    Biso  1.000000 C
   C15         1.0     0.080347     0.250000     0.524562    Biso  1.000000 C
   C16         1.0     0.419653     0.750000     0.024562    Biso  1.000000 C
   H1          1.0     0.283515     0.468137     0.222467    Biso  1.000000 H
   H2          1.0     0.216485     0.531863     0.722467    Biso  1.000000 H
   H3          1.0     0.716485     0.968137     0.777533    Biso  1.000000 H
   H4          1.0     0.783515     0.031863     0.277533    Biso  1.000000 H
   H5          1.0     0.716485     0.531863     0.777533    Biso  1.000000 H
   H6          1.0     0.783515     0.468137     0.277533    Biso  1.000000 H
   H7          1.0     0.283515     0.031863     0.222467    Biso  1.000000 H
   H8          1.0     0.216485     0.968137     0.722467    Biso  1.000000 H
   H9          1.0     0.009007     0.250000     0.933183    Biso  1.000000 H
   H10         1.0     0.490993     0.750000     0.433183    Biso  1.000000 H
   H11         1.0     0.990993     0.750000     0.066817    Biso  1.000000 H
   H12         1.0     0.509007     0.250000     0.566817    Biso  1.000000 H
   H13         1.0     0.089582     0.750000     0.653822    Biso  1.000000 H
   H14         1.0     0.410418     0.250000     0.153822    Biso  1.000000 H
   H15         1.0     0.910418     0.250000     0.346178    Biso  1.000000 H
   H16         1.0     0.589582     0.750000     0.846178    Biso  1.000000 H
   H17         1.0     0.149034     0.678557     0.489856    Biso  1.000000 H
   H18         1.0     0.350966     0.321443     0.989856    Biso  1.000000 H
   H19         1.0     0.850966     0.178557     0.510144    Biso  1.000000 H
   H20         1.0     0.649034     0.821443     0.010144    Biso  1.000000 H
   H21         1.0     0.850966     0.321443     0.510144    Biso  1.000000 H
   H22         1.0     0.649034     0.678557     0.010144    Biso  1.000000 H
   H23         1.0     0.149034     0.821443     0.489856    Biso  1.000000 H
   H24         1.0     0.350966     0.178557     0.989856    Biso  1.000000 H
   H25         1.0     0.918472     0.750000     0.345817    Biso  1.000000 H
   H26         1.0     0.581528     0.250000     0.845817    Biso  1.000000 H
   H27         1.0     0.081528     0.250000     0.654183    Biso  1.000000 H
   H28         1.0     0.418472     0.750000     0.154183    Biso  1.000000 H
   H29         1.0     0.859685     0.674948     0.520186    Biso  1.000000 H
   H30         1.0     0.640315     0.325052     0.020186    Biso  1.000000 H
   H31         1.0     0.140315     0.174948     0.479814    Biso  1.000000 H
   H32         1.0     0.359685     0.825052     0.979814    Biso  1.000000 H
   H33         1.0     0.140315     0.325052     0.479814    Biso  1.000000 H
   H34         1.0     0.359685     0.674948     0.979814    Biso  1.000000 H
   H35         1.0     0.859685     0.825052     0.520186    Biso  1.000000 H
   H36         1.0     0.640315     0.174948     0.020186    Biso  1.000000 H
   N1          1.0     0.087766     0.750000     0.530917    Biso  1.000000 N
   N2          1.0     0.412234     0.250000     0.030917    Biso  1.000000 N
   N3          1.0     0.912234     0.250000     0.469083    Biso  1.000000 N
   N4          1.0     0.587766     0.750000     0.969083    Biso  1.000000 N
