
#======================================================================
# CRYSTAL DATA
#----------------------------------------------------------------------
data_VESTA_phase_1

_chemical_name_common                  'CH3NH3-Ni-(HCOO)3                               '
_cell_length_a                         8.152805
_cell_length_b                         11.619360
_cell_length_c                         8.242669
_cell_angle_alpha                      90.000000
_cell_angle_beta                       90.000000
_cell_angle_gamma                      90.000000
_cell_volume                           780.831176
_space_group_name_H-M_alt              'P 1'
_space_group_IT_number                 1

loop_
_space_group_symop_operation_xyz
   'x, y, z'

loop_
   _atom_site_label
   _atom_site_occupancy
   _atom_site_fract_x
   _atom_site_fract_y
   _atom_site_fract_z
   _atom_site_adp_type
   _atom_site_B_iso_or_equiv
   _atom_site_type_symbol
   Ni1         1.0     0.000000     0.000000     0.000000    Biso  1.000000 Ni
   Ni2         1.0     0.500000     0.000000     0.500000    Biso  1.000000 Ni
   Ni3         1.0     0.000000     0.500000     0.000000    Biso  1.000000 Ni
   Ni4         1.0     0.500000     0.500000     0.500000    Biso  1.000000 Ni
   C1          1.0     0.989844     0.750000     0.946130    Biso  1.000000 C
   C2          1.0     0.510156     0.250000     0.446130    Biso  1.000000 C
   C3          1.0     0.010156     0.250000     0.053870    Biso  1.000000 C
   C4          1.0     0.489844     0.750000     0.553870    Biso  1.000000 C
   C5          1.0     0.218711     0.029578     0.721361    Biso  1.000000 C
   C6          1.0     0.281289     0.970422     0.221361    Biso  1.000000 C
   C7          1.0     0.781289     0.529578     0.278639    Biso  1.000000 C
   C8          1.0     0.718711     0.470422     0.778639    Biso  1.000000 C
   C9          1.0     0.781289     0.970422     0.278639    Biso  1.000000 C
   C10         1.0     0.718711     0.029578     0.778639    Biso  1.000000 C
   C11         1.0     0.218711     0.470422     0.721361    Biso  1.000000 C
   C12         1.0     0.281289     0.529578     0.221361    Biso  1.000000 C
   C13         1.0     0.413774     0.250000     0.974751    Biso  1.000000 C
   C14         1.0     0.086226     0.750000     0.474751    Biso  1.000000 C
   C15         1.0     0.586226     0.750000     0.025249    Biso  1.000000 C
   C16         1.0     0.913774     0.250000     0.525249    Biso  1.000000 C
   H1          1.0     0.015982     0.750000     0.077491    Biso  1.000000 H
   H2          1.0     0.484018     0.250000     0.577491    Biso  1.000000 H
   H3          1.0     0.984018     0.250000     0.922509    Biso  1.000000 H
   H4          1.0     0.515982     0.750000     0.422509    Biso  1.000000 H
   H5          1.0     0.352192     0.327060     0.020439    Biso  1.000000 H
   H6          1.0     0.147808     0.672940     0.520439    Biso  1.000000 H
   H7          1.0     0.647808     0.827060     0.979561    Biso  1.000000 H
   H8          1.0     0.852192     0.172940     0.479561    Biso  1.000000 H
   H9          1.0     0.647808     0.672940     0.979561    Biso  1.000000 H
   H10         1.0     0.852192     0.327060     0.479561    Biso  1.000000 H
   H11         1.0     0.352192     0.172940     0.020439    Biso  1.000000 H
   H12         1.0     0.147808     0.827060     0.520439    Biso  1.000000 H
   H13         1.0     0.649915     0.323250     0.989063    Biso  1.000000 H
   H14         1.0     0.850085     0.676750     0.489063    Biso  1.000000 H
   H15         1.0     0.350085     0.823250     0.010937    Biso  1.000000 H
   H16         1.0     0.149915     0.176750     0.510937    Biso  1.000000 H
   H17         1.0     0.350085     0.676750     0.010937    Biso  1.000000 H
   H18         1.0     0.149915     0.323250     0.510937    Biso  1.000000 H
   H19         1.0     0.649915     0.176750     0.989063    Biso  1.000000 H
   H20         1.0     0.850085     0.823250     0.489063    Biso  1.000000 H
   H21         1.0     0.412111     0.250000     0.842353    Biso  1.000000 H
   H22         1.0     0.087889     0.750000     0.342353    Biso  1.000000 H
   H23         1.0     0.587889     0.750000     0.157647    Biso  1.000000 H
   H24         1.0     0.912111     0.250000     0.657647    Biso  1.000000 H
   H25         1.0     0.290942     0.963917     0.786128    Biso  1.000000 H
   H26         1.0     0.209058     0.036083     0.286128    Biso  1.000000 H
   H27         1.0     0.709058     0.463917     0.213872    Biso  1.000000 H
   H28         1.0     0.790942     0.536083     0.713872    Biso  1.000000 H
   H29         1.0     0.709058     0.036083     0.213872    Biso  1.000000 H
   H30         1.0     0.790942     0.963917     0.713872    Biso  1.000000 H
   H31         1.0     0.290942     0.536083     0.786128    Biso  1.000000 H
   H32         1.0     0.209058     0.463917     0.286128    Biso  1.000000 H
   H33         1.0     0.588719     0.250000     0.156532    Biso  1.000000 H
   H34         1.0     0.911281     0.750000     0.656532    Biso  1.000000 H
   H35         1.0     0.411281     0.750000     0.843468    Biso  1.000000 H
   H36         1.0     0.088719     0.250000     0.343468    Biso  1.000000 H
   N1          1.0     0.586768     0.250000     0.030978    Biso  1.000000 N
   N2          1.0     0.913232     0.750000     0.530978    Biso  1.000000 N
   N3          1.0     0.413232     0.750000     0.969022    Biso  1.000000 N
   N4          1.0     0.086768     0.250000     0.469022    Biso  1.000000 N
   O1          1.0     0.093133     0.072043     0.788256    Biso  1.000000 O
   O2          1.0     0.406867     0.927957     0.288256    Biso  1.000000 O
   O3          1.0     0.906867     0.572043     0.211744    Biso  1.000000 O
   O4          1.0     0.593133     0.427957     0.711744    Biso  1.000000 O
   O5          1.0     0.906867     0.927957     0.211744    Biso  1.000000 O
   O6          1.0     0.593133     0.072043     0.711744    Biso  1.000000 O
   O7          1.0     0.093133     0.427957     0.788256    Biso  1.000000 O
   O8          1.0     0.406867     0.572043     0.288256    Biso  1.000000 O
   O9          1.0     0.767987     0.059302     0.919991    Biso  1.000000 O
   O10         1.0     0.732013     0.940698     0.419991    Biso  1.000000 O
   O11         1.0     0.232013     0.559302     0.080009    Biso  1.000000 O
   O12         1.0     0.267987     0.440698     0.580009    Biso  1.000000 O
   O13         1.0     0.232013     0.940698     0.080009    Biso  1.000000 O
   O14         1.0     0.267987     0.059302     0.580009    Biso  1.000000 O
   O15         1.0     0.767987     0.440698     0.919991    Biso  1.000000 O
   O16         1.0     0.732013     0.559302     0.419991    Biso  1.000000 O
   O17         1.0     0.974497     0.845786     0.873190    Biso  1.000000 O
   O18         1.0     0.525503     0.154214     0.373190    Biso  1.000000 O
   O19         1.0     0.025503     0.345786     0.126810    Biso  1.000000 O
   O20         1.0     0.474497     0.654214     0.626810    Biso  1.000000 O
   O21         1.0     0.025503     0.154214     0.126810    Biso  1.000000 O
   O22         1.0     0.474497     0.845786     0.626810    Biso  1.000000 O
   O23         1.0     0.974497     0.654214     0.873190    Biso  1.000000 O
   O24         1.0     0.525503     0.345786     0.373190    Biso  1.000000 O
