
#======================================================================
# CRYSTAL DATA
#----------------------------------------------------------------------
data_VESTA_phase_1

_chemical_name_common                  'CH3NH3-Mn-(HCOO)3                 '
_cell_length_a                         8.247071
_cell_length_b                         11.833736
_cell_length_c                         8.291006
_cell_angle_alpha                      90.000000
_cell_angle_beta                       90.000000
_cell_angle_gamma                      90.000000
_cell_volume                           809.149692
_space_group_name_H-M_alt              'P 1'
_space_group_IT_number                 1

loop_
_space_group_symop_operation_xyz
   'x, y, z'

loop_
   _atom_site_label
   _atom_site_occupancy
   _atom_site_fract_x
   _atom_site_fract_y
   _atom_site_fract_z
   _atom_site_adp_type
   _atom_site_B_iso_or_equiv
   _atom_site_type_symbol
   Fe1         1.0     0.500000     0.000000     0.000000    Biso  1.000000 Fe
   Fe2         1.0     0.000000     0.000000     0.500000    Biso  1.000000 Fe
   Fe3         1.0     0.500000     0.500000     0.000000    Biso  1.000000 Fe
   Fe4         1.0     0.000000     0.500000     0.500000    Biso  1.000000 Fe
   N1          1.0     0.914762     0.250000     0.030671    Biso  1.000000 N
   N2          1.0     0.585238     0.750000     0.530671    Biso  1.000000 N
   N3          1.0     0.085238     0.750000     0.969329    Biso  1.000000 N
   N4          1.0     0.414762     0.250000     0.469329    Biso  1.000000 N
   C1          1.0     0.715943     0.968014     0.279407    Biso  1.000000 C
   C2          1.0     0.784057     0.031986     0.779407    Biso  1.000000 C
   C3          1.0     0.284057     0.468014     0.720593    Biso  1.000000 C
   C4          1.0     0.215943     0.531986     0.220593    Biso  1.000000 C
   C5          1.0     0.284057     0.031986     0.720593    Biso  1.000000 C
   C6          1.0     0.215943     0.968014     0.220593    Biso  1.000000 C
   C7          1.0     0.715943     0.531986     0.279407    Biso  1.000000 C
   C8          1.0     0.784057     0.468014     0.779407    Biso  1.000000 C
   C9          1.0     0.489519     0.250000     0.057285    Biso  1.000000 C
   C10         1.0     0.010481     0.750000     0.557285    Biso  1.000000 C
   C11         1.0     0.510481     0.750000     0.942715    Biso  1.000000 C
   C12         1.0     0.989519     0.250000     0.442715    Biso  1.000000 C
   C13         1.0     0.085889     0.250000     0.974965    Biso  1.000000 C
   C14         1.0     0.414111     0.750000     0.474965    Biso  1.000000 C
   C15         1.0     0.914111     0.750000     0.025035    Biso  1.000000 C
   C16         1.0     0.585889     0.250000     0.525035    Biso  1.000000 C
   O1          1.0     0.595105     0.925467     0.207252    Biso  1.000000 O
   O2          1.0     0.904895     0.074533     0.707252    Biso  1.000000 O
   O3          1.0     0.404895     0.425467     0.792748    Biso  1.000000 O
   O4          1.0     0.095105     0.574533     0.292748    Biso  1.000000 O
   O5          1.0     0.404895     0.074533     0.792748    Biso  1.000000 O
   O6          1.0     0.095105     0.925467     0.292748    Biso  1.000000 O
   O7          1.0     0.595105     0.574533     0.207252    Biso  1.000000 O
   O8          1.0     0.904895     0.425467     0.707252    Biso  1.000000 O
   O9          1.0     0.760912     0.939045     0.420837    Biso  1.000000 O
   O10         1.0     0.739088     0.060955     0.920837    Biso  1.000000 O
   O11         1.0     0.239088     0.439045     0.579163    Biso  1.000000 O
   O12         1.0     0.260912     0.560955     0.079163    Biso  1.000000 O
   O13         1.0     0.239088     0.060955     0.579163    Biso  1.000000 O
   O14         1.0     0.260912     0.939045     0.079163    Biso  1.000000 O
   O15         1.0     0.760912     0.560955     0.420837    Biso  1.000000 O
   O16         1.0     0.739088     0.439045     0.920837    Biso  1.000000 O
   O17         1.0     0.473566     0.155470     0.128438    Biso  1.000000 O
   O18         1.0     0.026434     0.844530     0.628438    Biso  1.000000 O
   O19         1.0     0.526434     0.655470     0.871562    Biso  1.000000 O
   O20         1.0     0.973566     0.344530     0.371562    Biso  1.000000 O
   O21         1.0     0.526434     0.844530     0.871562    Biso  1.000000 O
   O22         1.0     0.973566     0.155470     0.371562    Biso  1.000000 O
   O23         1.0     0.473566     0.344530     0.128438    Biso  1.000000 O
   O24         1.0     0.026434     0.655470     0.628438    Biso  1.000000 O
   H1          1.0     0.787716     0.033822     0.217707    Biso  1.000000 H
   H2          1.0     0.712284     0.966178     0.717707    Biso  1.000000 H
   H3          1.0     0.212284     0.533822     0.782293    Biso  1.000000 H
   H4          1.0     0.287716     0.466178     0.282293    Biso  1.000000 H
   H5          1.0     0.212284     0.966178     0.782293    Biso  1.000000 H
   H6          1.0     0.287716     0.033822     0.282293    Biso  1.000000 H
   H7          1.0     0.787716     0.466178     0.217707    Biso  1.000000 H
   H8          1.0     0.712284     0.533822     0.717707    Biso  1.000000 H
   H9          1.0     0.516443     0.250000     0.926658    Biso  1.000000 H
   H10         1.0     0.983557     0.750000     0.426658    Biso  1.000000 H
   H11         1.0     0.483557     0.750000     0.073342    Biso  1.000000 H
   H12         1.0     0.016443     0.250000     0.573342    Biso  1.000000 H
   H13         1.0     0.852679     0.322133     0.988922    Biso  1.000000 H
   H14         1.0     0.647321     0.677867     0.488922    Biso  1.000000 H
   H15         1.0     0.147321     0.822133     0.011078    Biso  1.000000 H
   H16         1.0     0.352679     0.177867     0.511078    Biso  1.000000 H
   H17         1.0     0.147321     0.677867     0.011078    Biso  1.000000 H
   H18         1.0     0.352679     0.322133     0.511078    Biso  1.000000 H
   H19         1.0     0.852679     0.177867     0.988922    Biso  1.000000 H
   H20         1.0     0.647321     0.822133     0.488922    Biso  1.000000 H
   H21         1.0     0.912606     0.250000     0.155546    Biso  1.000000 H
   H22         1.0     0.587394     0.750000     0.655546    Biso  1.000000 H
   H23         1.0     0.087394     0.750000     0.844454    Biso  1.000000 H
   H24         1.0     0.412606     0.250000     0.344454    Biso  1.000000 H
   H25         1.0     0.146835     0.325626     0.020529    Biso  1.000000 H
   H26         1.0     0.353165     0.674374     0.520529    Biso  1.000000 H
   H27         1.0     0.853165     0.825626     0.979471    Biso  1.000000 H
   H28         1.0     0.646835     0.174374     0.479471    Biso  1.000000 H
   H29         1.0     0.853165     0.674374     0.979471    Biso  1.000000 H
   H30         1.0     0.646835     0.325626     0.479471    Biso  1.000000 H
   H31         1.0     0.146835     0.174374     0.020529    Biso  1.000000 H
   H32         1.0     0.353165     0.825626     0.520529    Biso  1.000000 H
   H33         1.0     0.087728     0.250000     0.842071    Biso  1.000000 H
   H34         1.0     0.412272     0.750000     0.343277    Biso  1.000000 H
   H35         1.0     0.912272     0.750000     0.156723    Biso  1.000000 H
   H36         1.0     0.587728     0.250000     0.656723    Biso  1.000000 H
