
#======================================================================
# CRYSTAL DATA
#----------------------------------------------------------------------
data_VESTA_phase_1

_chemical_name_common                  '(CH3)2NH2-Zn-(HCOO)3                        '
_cell_length_a                         14.127144
_cell_length_b                         8.242522
_cell_length_c                         8.641561
_cell_angle_alpha                      90.000000
_cell_angle_beta                       120.708061
_cell_angle_gamma                      90.000000
_cell_volume                           865.155613
_space_group_name_H-M_alt              'P 1'
_space_group_IT_number                 1

loop_
_space_group_symop_operation_xyz
   'x, y, z'

loop_
   _atom_site_label
   _atom_site_occupancy
   _atom_site_fract_x
   _atom_site_fract_y
   _atom_site_fract_z
   _atom_site_adp_type
   _atom_site_B_iso_or_equiv
   _atom_site_type_symbol
   Zn1         1.0     0.000436     0.253162     0.000427    Biso  1.000000 Zn
   Zn2         1.0     0.000436     0.746838     0.500427    Biso  1.000000 Zn
   Zn3         1.0     0.500436     0.753162     0.000427    Biso  1.000000 Zn
   Zn4         1.0     0.500436     0.246838     0.500427    Biso  1.000000 Zn
   O1          1.0     0.156229     0.142725     0.162558    Biso  1.000000 O
   O2          1.0     0.156229     0.857275     0.662558    Biso  1.000000 O
   O3          1.0     0.656229     0.642725     0.162558    Biso  1.000000 O
   O4          1.0     0.656229     0.357275     0.662558    Biso  1.000000 O
   O5          1.0     0.048054     0.521707     0.631731    Biso  1.000000 O
   O6          1.0     0.048054     0.478293     0.131731    Biso  1.000000 O
   O7          1.0     0.548053     0.021707     0.631732    Biso  1.000000 O
   O8          1.0     0.548053     0.978293     0.131732    Biso  1.000000 O
   O9          1.0     0.046810     0.331539     0.815877    Biso  1.000000 O
   O10         1.0     0.046810     0.668461     0.315877    Biso  1.000000 O
   O11         1.0     0.546810     0.831539     0.815877    Biso  1.000000 O
   O12         1.0     0.546810     0.168461     0.315877    Biso  1.000000 O
   O13         1.0     0.942083     0.968226     0.354369    Biso  1.000000 O
   O14         1.0     0.942083     0.031774     0.854369    Biso  1.000000 O
   O15         1.0     0.442083     0.468226     0.354369    Biso  1.000000 O
   O16         1.0     0.442083     0.531774     0.854369    Biso  1.000000 O
   O17         1.0     0.946730     0.164122     0.179090    Biso  1.000000 O
   O18         1.0     0.946730     0.835878     0.679090    Biso  1.000000 O
   O19         1.0     0.446730     0.664122     0.179090    Biso  1.000000 O
   O20         1.0     0.446730     0.335878     0.679090    Biso  1.000000 O
   O21         1.0     0.339207     0.139297     0.337489    Biso  1.000000 O
   O22         1.0     0.339207     0.860703     0.837489    Biso  1.000000 O
   O23         1.0     0.839207     0.639298     0.337489    Biso  1.000000 O
   O24         1.0     0.839207     0.360702     0.837489    Biso  1.000000 O
   C1          1.0     0.693993     0.278612     0.093978    Biso  1.000000 C
   C2          1.0     0.693993     0.721388     0.593978    Biso  1.000000 C
   C3          1.0     0.193992     0.778613     0.093978    Biso  1.000000 C
   C4          1.0     0.193992     0.221387     0.593978    Biso  1.000000 C
   C5          1.0     0.247775     0.214653     0.249765    Biso  1.000000 C
   C6          1.0     0.247775     0.785347     0.749765    Biso  1.000000 C
   C7          1.0     0.747775     0.714653     0.249765    Biso  1.000000 C
   C8          1.0     0.747775     0.285347     0.749765    Biso  1.000000 C
   C9          1.0     0.034309     0.476519     0.759267    Biso  1.000000 C
   C10         1.0     0.034309     0.523481     0.259267    Biso  1.000000 C
   C11         1.0     0.534309     0.976520     0.759266    Biso  1.000000 C
   C12         1.0     0.534309     0.023480     0.259266    Biso  1.000000 C
   C13         1.0     0.976751     0.025995     0.256926    Biso  1.000000 C
   C14         1.0     0.976751     0.974005     0.756926    Biso  1.000000 C
   C15         1.0     0.476751     0.525996     0.256926    Biso  1.000000 C
   C16         1.0     0.476751     0.474004     0.756926    Biso  1.000000 C
   C17         1.0     0.804140     0.237007     0.423096    Biso  1.000000 C
   C18         1.0     0.804140     0.762993     0.923096    Biso  1.000000 C
   C19         1.0     0.304141     0.737006     0.423097    Biso  1.000000 C
   C20         1.0     0.304141     0.262994     0.923097    Biso  1.000000 C
   H1          1.0     0.685770     0.148248     0.066321    Biso  1.000000 H
   H2          1.0     0.685770     0.851752     0.566321    Biso  1.000000 H
   H3          1.0     0.185770     0.648247     0.066321    Biso  1.000000 H
   H4          1.0     0.185770     0.351753     0.566321    Biso  1.000000 H
   H5          1.0     0.693110     0.345572     0.984175    Biso  1.000000 H
   H6          1.0     0.693110     0.654428     0.484175    Biso  1.000000 H
   H7          1.0     0.193110     0.845572     0.984175    Biso  1.000000 H
   H8          1.0     0.193110     0.154428     0.484175    Biso  1.000000 H
   H9          1.0     0.626217     0.319215     0.110888    Biso  1.000000 H
   H10         1.0     0.626217     0.680785     0.610888    Biso  1.000000 H
   H11         1.0     0.126218     0.819214     0.110888    Biso  1.000000 H
   H12         1.0     0.126218     0.180786     0.610888    Biso  1.000000 H
   H13         1.0     0.250116     0.348986     0.251456    Biso  1.000000 H
   H14         1.0     0.250116     0.651014     0.751456    Biso  1.000000 H
   H15         1.0     0.750116     0.848986     0.251456    Biso  1.000000 H
   H16         1.0     0.750116     0.151014     0.751456    Biso  1.000000 H
   H17         1.0     0.010512     0.568813     0.826309    Biso  1.000000 H
   H18         1.0     0.010512     0.431187     0.326309    Biso  1.000000 H
   H19         1.0     0.510511     0.068814     0.826309    Biso  1.000000 H
   H20         1.0     0.510511     0.931186     0.326309    Biso  1.000000 H
   H21         1.0     0.035910     0.954980     0.236730    Biso  1.000000 H
   H22         1.0     0.035910     0.045020     0.736730    Biso  1.000000 H
   H23         1.0     0.535910     0.454980     0.236729    Biso  1.000000 H
   H24         1.0     0.535910     0.545020     0.736729    Biso  1.000000 H
   H25         1.0     0.862725     0.258103     0.244832    Biso  1.000000 H
   H26         1.0     0.862725     0.741897     0.744832    Biso  1.000000 H
   H27         1.0     0.362725     0.758103     0.244832    Biso  1.000000 H
   H28         1.0     0.362725     0.241897     0.744832    Biso  1.000000 H
   H29         1.0     0.814266     0.434518     0.284570    Biso  1.000000 H
   H30         1.0     0.814266     0.565482     0.784570    Biso  1.000000 H
   H31         1.0     0.314266     0.934518     0.284570    Biso  1.000000 H
   H32         1.0     0.314266     0.065482     0.784570    Biso  1.000000 H
   H33         1.0     0.883760     0.264979     0.542140    Biso  1.000000 H
   H34         1.0     0.883760     0.735021     0.042140    Biso  1.000000 H
   H35         1.0     0.383760     0.764979     0.542139    Biso  1.000000 H
   H36         1.0     0.383760     0.235021     0.042139    Biso  1.000000 H
   H37         1.0     0.794442     0.105427     0.406074    Biso  1.000000 H
   H38         1.0     0.794442     0.894573     0.906074    Biso  1.000000 H
   H39         1.0     0.294441     0.605427     0.406074    Biso  1.000000 H
   H40         1.0     0.294441     0.394573     0.906074    Biso  1.000000 H
   H41         1.0     0.736540     0.287844     0.434725    Biso  1.000000 H
   H42         1.0     0.736540     0.712156     0.934725    Biso  1.000000 H
   H43         1.0     0.236539     0.787844     0.434725    Biso  1.000000 H
   H44         1.0     0.236539     0.212156     0.934725    Biso  1.000000 H
   N1          1.0     0.800116     0.308562     0.262408    Biso  1.000000 N
   N2          1.0     0.800116     0.691438     0.762408    Biso  1.000000 N
   N3          1.0     0.300116     0.808562     0.262408    Biso  1.000000 N
   N4          1.0     0.300116     0.191438     0.762408    Biso  1.000000 N
