
#======================================================================
# CRYSTAL DATA
#----------------------------------------------------------------------
data_VESTA_phase_1

_chemical_name_common                  'NH2CHNH2-Mn-(HCOO)3'
_cell_length_a                         13.100920
_cell_length_b                         8.844071
_cell_length_c                         8.218797
_cell_angle_alpha                      90.000000
_cell_angle_beta                       116.146233
_cell_angle_gamma                      90.000000
_cell_volume                           854.830648
_space_group_name_H-M_alt              'P 1'
_space_group_IT_number                 1

loop_
_space_group_symop_operation_xyz
   'x, y, z'

loop_
   _atom_site_label
   _atom_site_occupancy
   _atom_site_fract_x
   _atom_site_fract_y
   _atom_site_fract_z
   _atom_site_adp_type
   _atom_site_B_iso_or_equiv
   _atom_site_type_symbol
   Mn1         1.0     0.250000     0.250000     0.000000    Biso  1.000000 Mn
   Mn2         1.0     0.750000     0.750000    -0.000000    Biso  1.000000 Mn
   Mn3         1.0     0.750000     0.250000     0.500000    Biso  1.000000 Mn
   Mn4         1.0     0.250000     0.750000     0.500000    Biso  1.000000 Mn
   O1          1.0     0.168380     0.451160     0.046165    Biso  1.000000 O
   O2          1.0     0.831620     0.548840     0.953835    Biso  1.000000 O
   O3          1.0     0.831620     0.451161     0.453836    Biso  1.000000 O
   O4          1.0     0.168380     0.548839     0.546164    Biso  1.000000 O
   O5          1.0     0.668380     0.951161     0.046164    Biso  1.000000 O
   O6          1.0     0.331620     0.048839     0.953836    Biso  1.000000 O
   O7          1.0     0.331620     0.951160     0.453835    Biso  1.000000 O
   O8          1.0     0.668380     0.048840     0.546165    Biso  1.000000 O
   O9          1.0     0.294918     0.153037     0.271163    Biso  1.000000 O
   O10         1.0     0.705082     0.846963     0.728837    Biso  1.000000 O
   O11         1.0     0.705082     0.153037     0.228837    Biso  1.000000 O
   O12         1.0     0.294919     0.846963     0.771163    Biso  1.000000 O
   O13         1.0     0.794918     0.653037     0.271163    Biso  1.000000 O
   O14         1.0     0.205082     0.346963     0.728837    Biso  1.000000 O
   O15         1.0     0.205082     0.653037     0.228837    Biso  1.000000 O
   O16         1.0     0.794918     0.346963     0.771163    Biso  1.000000 O
   O17         1.0     0.411335     0.378589     0.136695    Biso  1.000000 O
   O18         1.0     0.588665     0.621411     0.863305    Biso  1.000000 O
   O19         1.0     0.588666     0.378590     0.363307    Biso  1.000000 O
   O20         1.0     0.411334     0.621410     0.636693    Biso  1.000000 O
   O21         1.0     0.911334     0.878590     0.136693    Biso  1.000000 O
   O22         1.0     0.088666     0.121410     0.863307    Biso  1.000000 O
   O23         1.0     0.088665     0.878589     0.363305    Biso  1.000000 O
   O24         1.0     0.911335     0.121411     0.636695    Biso  1.000000 O
   C1          1.0     0.500000     0.311651     0.250000    Biso  1.000000 C
   C2          1.0     0.500000     0.688349     0.750000    Biso  1.000000 C
   C3          1.0     0.000000     0.811651     0.250000    Biso  1.000000 C
   C4          1.0    -0.000000     0.188349     0.750000    Biso  1.000000 C
   C5          1.0     0.210041     0.512166     0.201164    Biso  1.000000 C
   C6          1.0     0.789959     0.487834     0.798836    Biso  1.000000 C
   C7          1.0     0.789959     0.512168     0.298835    Biso  1.000000 C
   C8          1.0     0.210041     0.487832     0.701165    Biso  1.000000 C
   C9          1.0     0.710041     0.012168     0.201165    Biso  1.000000 C
   C10         1.0     0.289959     0.987832     0.798835    Biso  1.000000 C
   C11         1.0     0.289959     0.012166     0.298836    Biso  1.000000 C
   C12         1.0     0.710041     0.987834     0.701164    Biso  1.000000 C
   C13         1.0    -0.000001     0.730138     0.749997    Biso  1.000000 C
   C14         1.0     0.000001     0.269862     0.250003    Biso  1.000000 C
   C15         1.0     0.500001     0.230138     0.750003    Biso  1.000000 C
   C16         1.0     0.499999     0.769862     0.249997    Biso  1.000000 C
   H1          1.0     0.500000     0.186461     0.250001    Biso  1.000000 H
   H2          1.0     0.500000     0.813539     0.749999    Biso  1.000000 H
   H3          1.0    -0.000000     0.686461     0.249999    Biso  1.000000 H
   H4          1.0     0.000000     0.313539     0.750001    Biso  1.000000 H
   H5          1.0     0.252890     0.438945     0.321675    Biso  1.000000 H
   H6          1.0     0.747110     0.561055     0.678325    Biso  1.000000 H
   H7          1.0     0.747110     0.438945     0.178326    Biso  1.000000 H
   H8          1.0     0.252890     0.561055     0.821674    Biso  1.000000 H
   H9          1.0     0.752890     0.938945     0.321674    Biso  1.000000 H
   H10         1.0     0.247110     0.061055     0.678326    Biso  1.000000 H
   H11         1.0     0.247110     0.938945     0.178325    Biso  1.000000 H
   H12         1.0     0.752890     0.061055     0.821675    Biso  1.000000 H
   H13         1.0     0.122068     0.738983     0.012520    Biso  1.000000 H
   H14         1.0     0.877932     0.261017     0.987480    Biso  1.000000 H
   H15         1.0     0.877933     0.738983     0.487482    Biso  1.000000 H
   H16         1.0     0.122067     0.261017     0.512518    Biso  1.000000 H
   H17         1.0     0.622067     0.238983     0.012519    Biso  1.000000 H
   H18         1.0     0.377933     0.761017     0.987482    Biso  1.000000 H
   H19         1.0     0.377932     0.238983     0.487480    Biso  1.000000 H
   H20         1.0     0.622068     0.761017     0.512520    Biso  1.000000 H
   H21         1.0     0.076704     0.916610     0.897836    Biso  1.000000 H
   H22         1.0     0.923296     0.083390     0.102165    Biso  1.000000 H
   H23         1.0     0.923297     0.916610     0.602166    Biso  1.000000 H
   H24         1.0     0.076703     0.083390     0.397834    Biso  1.000000 H
   H25         1.0     0.576703     0.416610     0.897834    Biso  1.000000 H
   H26         1.0     0.423297     0.583390     0.102166    Biso  1.000000 H
   H27         1.0     0.423296     0.416609     0.602165    Biso  1.000000 H
   H28         1.0     0.576704     0.583390     0.397835    Biso  1.000000 H
   H29         1.0     0.000001     0.606626     0.750001    Biso  1.000000 H
   H30         1.0    -0.000001     0.393374     0.249999    Biso  1.000000 H
   H31         1.0     0.499999     0.106626     0.749999    Biso  1.000000 H
   H32         1.0     0.500001     0.893374     0.250001    Biso  1.000000 H
   N1          1.0     0.070955     0.800016     0.897829    Biso  1.000000 N
   N2          1.0     0.929045     0.199984     0.102171    Biso  1.000000 N
   N3          1.0     0.929048     0.800014     0.602177    Biso  1.000000 N
   N4          1.0     0.070952     0.199986     0.397823    Biso  1.000000 N
   N5          1.0     0.570952     0.300014     0.897823    Biso  1.000000 N
   N6          1.0     0.429048     0.699986     0.102177    Biso  1.000000 N
   N7          1.0     0.429045     0.300016     0.602171    Biso  1.000000 N
   N8          1.0     0.570955     0.699984     0.397829    Biso  1.000000 N
