
#======================================================================
# CRYSTAL DATA
#----------------------------------------------------------------------
data_VESTA_phase_1

_chemical_name_common                  'crystal                               '
_cell_length_a                         8.439008
_cell_length_b                         11.538956
_cell_length_c                         8.225052
_cell_angle_alpha                      90.000000
_cell_angle_beta                       90.000000
_cell_angle_gamma                      90.000000
_cell_volume                           800.933645
_space_group_name_H-M_alt              'P 1'
_space_group_IT_number                 1

loop_
_space_group_symop_operation_xyz
   'x, y, z'

loop_
   _atom_site_label
   _atom_site_occupancy
   _atom_site_fract_x
   _atom_site_fract_y
   _atom_site_fract_z
   _atom_site_adp_type
   _atom_site_B_iso_or_equiv
   _atom_site_type_symbol
   Ni1         1.0     0.000000     0.500000     0.500000    Biso  1.000000 Ni
   Ni2         1.0     0.500000     0.500000     0.000000    Biso  1.000000 Ni
   Ni3         1.0     0.500000     0.000000     0.000000    Biso  1.000000 Ni
   Ni4         1.0     0.000000     0.000000     0.500000    Biso  1.000000 Ni
   N1          1.0     0.071767     0.750000     0.983921    Biso  1.000000 N
   N2          1.0     0.428233     0.250000     0.483921    Biso  1.000000 N
   N3          1.0     0.571767     0.750000     0.516079    Biso  1.000000 N
   N4          1.0     0.928233     0.250000     0.016079    Biso  1.000000 N
   C1          1.0     0.914054     0.750000     0.063652    Biso  1.000000 C
   C2          1.0     0.585946     0.250000     0.563652    Biso  1.000000 C
   C3          1.0     0.414054     0.750000     0.436348    Biso  1.000000 C
   C4          1.0     0.085946     0.250000     0.936348    Biso  1.000000 C
   C5          1.0     0.724493     0.530446     0.278416    Biso  1.000000 C
   C6          1.0     0.775507     0.469554     0.778417    Biso  1.000000 C
   C7          1.0     0.224493     0.969554     0.221584    Biso  1.000000 C
   C8          1.0     0.275507     0.030446     0.721583    Biso  1.000000 C
   C9          1.0     0.275507     0.469554     0.721583    Biso  1.000000 C
   C10         1.0     0.224493     0.530446     0.221584    Biso  1.000000 C
   C11         1.0     0.775507     0.030446     0.778417    Biso  1.000000 C
   C12         1.0     0.724493     0.969554     0.278416    Biso  1.000000 C
   C13         1.0     0.029044     0.750000     0.543811    Biso  1.000000 C
   C14         1.0     0.470956     0.250000     0.043811    Biso  1.000000 C
   C15         1.0     0.529044     0.750000     0.956189    Biso  1.000000 C
   C16         1.0     0.970956     0.250000     0.456189    Biso  1.000000 C
   O1          1.0     0.773916     0.562679     0.418325    Biso  1.000000 O
   O2          1.0     0.726084     0.437321     0.918325    Biso  1.000000 O
   O3          1.0     0.273916     0.937321     0.081675    Biso  1.000000 O
   O4          1.0     0.226084     0.062679     0.581675    Biso  1.000000 O
   O5          1.0     0.226084     0.437321     0.581675    Biso  1.000000 O
   O6          1.0     0.273916     0.562679     0.081675    Biso  1.000000 O
   O7          1.0     0.726084     0.062679     0.918325    Biso  1.000000 O
   O8          1.0     0.773916     0.937321     0.418325    Biso  1.000000 O
   O9          1.0     0.904920     0.436045     0.716966    Biso  1.000000 O
   O10         1.0     0.595080     0.563955     0.216966    Biso  1.000000 O
   O11         1.0     0.404920     0.063955     0.783034    Biso  1.000000 O
   O12         1.0     0.095080     0.936045     0.283034    Biso  1.000000 O
   O13         1.0     0.095080     0.563955     0.283034    Biso  1.000000 O
   O14         1.0     0.404920     0.436045     0.783034    Biso  1.000000 O
   O15         1.0     0.595080     0.936045     0.216966    Biso  1.000000 O
   O16         1.0     0.904920     0.063955     0.716966    Biso  1.000000 O
   O17         1.0     0.036559     0.653548     0.617466    Biso  1.000000 O
   O18         1.0     0.463441     0.346452     0.117466    Biso  1.000000 O
   O19         1.0     0.536559     0.846452     0.882534    Biso  1.000000 O
   O20         1.0     0.963441     0.153548     0.382534    Biso  1.000000 O
   O21         1.0     0.963441     0.346452     0.382534    Biso  1.000000 O
   O22         1.0     0.536559     0.653548     0.882534    Biso  1.000000 O
   O23         1.0     0.463441     0.153548     0.117466    Biso  1.000000 O
   O24         1.0     0.036559     0.846452     0.617466    Biso  1.000000 O
   H1          1.0     0.138735     0.676885     0.017363    Biso  1.000000 H
   H2          1.0     0.361265     0.323115     0.517363    Biso  1.000000 H
   H3          1.0     0.638735     0.823115     0.482637    Biso  1.000000 H
   H4          1.0     0.861265     0.176885     0.982637    Biso  1.000000 H
   H5          1.0     0.861265     0.323115     0.982637    Biso  1.000000 H
   H6          1.0     0.638735     0.676885     0.482637    Biso  1.000000 H
   H7          1.0     0.361265     0.176885     0.517363    Biso  1.000000 H
   H8          1.0     0.138735     0.823115     0.017363    Biso  1.000000 H
   H9          1.0     0.060188     0.750000     0.858665    Biso  1.000000 H
   H10         1.0     0.439811     0.250000     0.358665    Biso  1.000000 H
   H11         1.0     0.560188     0.750000     0.641335    Biso  1.000000 H
   H12         1.0     0.939812     0.250000     0.141335    Biso  1.000000 H
   H13         1.0     0.848955     0.672454     0.026769    Biso  1.000000 H
   H14         1.0     0.651045     0.327546     0.526769    Biso  1.000000 H
   H15         1.0     0.348955     0.827546     0.473231    Biso  1.000000 H
   H16         1.0     0.151045     0.172454     0.973231    Biso  1.000000 H
   H17         1.0     0.151045     0.327546     0.973231    Biso  1.000000 H
   H18         1.0     0.348955     0.672454     0.473231    Biso  1.000000 H
   H19         1.0     0.651045     0.172454     0.526769    Biso  1.000000 H
   H20         1.0     0.848955     0.827546     0.026769    Biso  1.000000 H
   H21         1.0     0.793028     0.782388     0.752540    Biso  1.000000 H
   H22         1.0     0.706972     0.217612     0.252540    Biso  1.000000 H
   H23         1.0     0.293028     0.717612     0.747460    Biso  1.000000 H
   H24         1.0     0.206972     0.282388     0.247460    Biso  1.000000 H
   H25         1.0     0.206972     0.217612     0.247460    Biso  1.000000 H
   H26         1.0     0.293028     0.782388     0.747460    Biso  1.000000 H
   H27         1.0     0.706972     0.282388     0.252540    Biso  1.000000 H
   H28         1.0     0.793028     0.717612     0.752540    Biso  1.000000 H
   H29         1.0     0.930412     0.750000     0.194988    Biso  1.000000 H
   H30         1.0     0.569588     0.250000     0.694988    Biso  1.000000 H
   H31         1.0     0.430412     0.750000     0.305012    Biso  1.000000 H
   H32         1.0     0.069588     0.250000     0.805012    Biso  1.000000 H
   H33         1.0     0.800810     0.470825     0.208627    Biso  1.000000 H
   H34         1.0     0.699190     0.529175     0.708627    Biso  1.000000 H
   H35         1.0     0.300810     0.029175     0.291373    Biso  1.000000 H
   H36         1.0     0.199190     0.970825     0.791373    Biso  1.000000 H
   H37         1.0     0.199190     0.529175     0.791373    Biso  1.000000 H
   H38         1.0     0.300810     0.470825     0.291373    Biso  1.000000 H
   H39         1.0     0.699190     0.970825     0.708627    Biso  1.000000 H
   H40         1.0     0.800810     0.029175     0.208627    Biso  1.000000 H
   H41         1.0     0.015865     0.750000     0.410414    Biso  1.000000 H
   H42         1.0     0.484135     0.250000     0.910414    Biso  1.000000 H
   H43         1.0     0.515865     0.750000     0.089586    Biso  1.000000 H
   H44         1.0     0.984135     0.250000     0.589586    Biso  1.000000 H
