
#======================================================================
# CRYSTAL DATA
#----------------------------------------------------------------------
data_VESTA_phase_1

_chemical_name_common                  'crystal                               '
_cell_length_a                         8.167269
_cell_length_b                         11.691696
_cell_length_c                         8.311010
_cell_angle_alpha                      90.000000
_cell_angle_beta                       90.000000
_cell_angle_gamma                      90.000000
_cell_volume                           793.611936
_space_group_name_H-M_alt              'P 1'
_space_group_IT_number                 1

loop_
_space_group_symop_operation_xyz
   'x, y, z'

loop_
   _atom_site_label
   _atom_site_occupancy
   _atom_site_fract_x
   _atom_site_fract_y
   _atom_site_fract_z
   _atom_site_adp_type
   _atom_site_B_iso_or_equiv
   _atom_site_type_symbol
   Zn1         1.0     0.000000     0.000000     0.500000    Biso  1.000000 Zn
   Zn2         1.0     0.500000     0.500000     0.000000    Biso  1.000000 Zn
   Zn3         1.0     0.000000     0.500000     0.500000    Biso  1.000000 Zn
   Zn4         1.0     0.500000     0.000000     0.000000    Biso  1.000000 Zn
   O1          1.0     0.092260     0.075489     0.711828    Biso  1.000000 O
   O2          1.0     0.592260     0.424511     0.788172    Biso  1.000000 O
   O3          1.0     0.907740     0.575489     0.288172    Biso  1.000000 O
   O4          1.0     0.407740     0.924511     0.211828    Biso  1.000000 O
   O5          1.0     0.907740     0.924511     0.288172    Biso  1.000000 O
   O6          1.0     0.407740     0.575489     0.211828    Biso  1.000000 O
   O7          1.0     0.092260     0.424511     0.711828    Biso  1.000000 O
   O8          1.0     0.592260     0.075489     0.788172    Biso  1.000000 O
   O9          1.0     0.262146     0.059566     0.922201    Biso  1.000000 O
   O10         1.0     0.762146     0.440434     0.577799    Biso  1.000000 O
   O11         1.0     0.737854     0.559566     0.077799    Biso  1.000000 O
   O12         1.0     0.237854     0.940434     0.422201    Biso  1.000000 O
   O13         1.0     0.737854     0.940434     0.077799    Biso  1.000000 O
   O14         1.0     0.237854     0.559566     0.422201    Biso  1.000000 O
   O15         1.0     0.262146     0.440434     0.922201    Biso  1.000000 O
   O16         1.0     0.762146     0.059566     0.577799    Biso  1.000000 O
   O17         1.0     0.975633     0.845331     0.630995    Biso  1.000000 O
   O18         1.0     0.475633     0.654669     0.869005    Biso  1.000000 O
   O19         1.0     0.024367     0.345331     0.369005    Biso  1.000000 O
   O20         1.0     0.524367     0.154669     0.130995    Biso  1.000000 O
   O21         1.0     0.024367     0.154669     0.369005    Biso  1.000000 O
   O22         1.0     0.524367     0.345331     0.130995    Biso  1.000000 O
   O23         1.0     0.975633     0.654669     0.630995    Biso  1.000000 O
   O24         1.0     0.475633     0.845331     0.869005    Biso  1.000000 O
   C1          1.0     0.214010     0.030939     0.781482    Biso  1.000000 C
   C2          1.0     0.714010     0.469061     0.718518    Biso  1.000000 C
   C3          1.0     0.785990     0.530939     0.218518    Biso  1.000000 C
   C4          1.0     0.285990     0.969061     0.281482    Biso  1.000000 C
   C5          1.0     0.785990     0.969061     0.218518    Biso  1.000000 C
   C6          1.0     0.285990     0.530939     0.281482    Biso  1.000000 C
   C7          1.0     0.214010     0.469061     0.781482    Biso  1.000000 C
   C8          1.0     0.714010     0.030939     0.718518    Biso  1.000000 C
   C9          1.0     0.009485     0.250000     0.440874    Biso  1.000000 C
   C10         1.0     0.509485     0.250000     0.059126    Biso  1.000000 C
   C11         1.0     0.990515     0.750000     0.559126    Biso  1.000000 C
   C12         1.0     0.490515     0.750000     0.940874    Biso  1.000000 C
   C13         1.0     0.911614     0.250000     0.972819    Biso  1.000000 C
   C14         1.0     0.411614     0.250000     0.527181    Biso  1.000000 C
   C15         1.0     0.088386     0.750000     0.027181    Biso  1.000000 C
   C16         1.0     0.588386     0.750000     0.472819    Biso  1.000000 C
   H1          1.0     0.284250     0.963622     0.719037    Biso  1.000000 H
   H2          1.0     0.784250     0.536378     0.780963    Biso  1.000000 H
   H3          1.0     0.715750     0.463622     0.280963    Biso  1.000000 H
   H4          1.0     0.215750     0.036378     0.219037    Biso  1.000000 H
   H5          1.0     0.715750     0.036378     0.280963    Biso  1.000000 H
   H6          1.0     0.215750     0.463622     0.219037    Biso  1.000000 H
   H7          1.0     0.284250     0.536378     0.719037    Biso  1.000000 H
   H8          1.0     0.784250     0.963622     0.780963    Biso  1.000000 H
   H9          1.0     0.983904     0.250000     0.571402    Biso  1.000000 H
   H10         1.0     0.483904     0.250000     0.928598    Biso  1.000000 H
   H11         1.0     0.016096     0.750000     0.428598    Biso  1.000000 H
   H12         1.0     0.516096     0.750000     0.071402    Biso  1.000000 H
   H13         1.0     0.084455     0.250000     0.154881    Biso  1.000000 H
   H14         1.0     0.584455     0.250000     0.345119    Biso  1.000000 H
   H15         1.0     0.915545     0.750000     0.845119    Biso  1.000000 H
   H16         1.0     0.415545     0.750000     0.654881    Biso  1.000000 H
   H17         1.0     0.146827     0.177066     0.989340    Biso  1.000000 H
   H18         1.0     0.646827     0.322934     0.510660    Biso  1.000000 H
   H19         1.0     0.853173     0.677066     0.010660    Biso  1.000000 H
   H20         1.0     0.353173     0.822934     0.489340    Biso  1.000000 H
   H21         1.0     0.853173     0.822934     0.010660    Biso  1.000000 H
   H22         1.0     0.353173     0.677066     0.489340    Biso  1.000000 H
   H23         1.0     0.146827     0.322934     0.989340    Biso  1.000000 H
   H24         1.0     0.646827     0.177066     0.510660    Biso  1.000000 H
   H25         1.0     0.911516     0.250000     0.841501    Biso  1.000000 H
   H26         1.0     0.411516     0.250000     0.658499    Biso  1.000000 H
   H27         1.0     0.088484     0.750000     0.158499    Biso  1.000000 H
   H28         1.0     0.588484     0.750000     0.341501    Biso  1.000000 H
   H29         1.0     0.849671     0.173387     0.017432    Biso  1.000000 H
   H30         1.0     0.349671     0.326613     0.482568    Biso  1.000000 H
   H31         1.0     0.150329     0.673387     0.982568    Biso  1.000000 H
   H32         1.0     0.650329     0.826613     0.517432    Biso  1.000000 H
   H33         1.0     0.150329     0.826613     0.982568    Biso  1.000000 H
   H34         1.0     0.650329     0.673387     0.517432    Biso  1.000000 H
   H35         1.0     0.849671     0.326613     0.017432    Biso  1.000000 H
   H36         1.0     0.349671     0.173387     0.482568    Biso  1.000000 H
   N1          1.0     0.083647     0.250000     0.030385    Biso  1.000000 N
   N2          1.0     0.583647     0.250000     0.469615    Biso  1.000000 N
   N3          1.0     0.916353     0.750000     0.969615    Biso  1.000000 N
   N4          1.0     0.416353     0.750000     0.530385    Biso  1.000000 N
