
#======================================================================
# CRYSTAL DATA
#----------------------------------------------------------------------
data_VESTA_phase_1

_chemical_name_common                  'NH2NH3-Co-(HCOO)3                    '
_cell_length_a                         8.627869
_cell_length_b                         7.738015
_cell_length_c                         11.458720
_cell_angle_alpha                      90.000000
_cell_angle_beta                       90.000000
_cell_angle_gamma                      90.000000
_cell_volume                           765.013708
_space_group_name_H-M_alt              'P 1'
_space_group_IT_number                 1

loop_
_space_group_symop_operation_xyz
   'x, y, z'

loop_
   _atom_site_label
   _atom_site_occupancy
   _atom_site_fract_x
   _atom_site_fract_y
   _atom_site_fract_z
   _atom_site_adp_type
   _atom_site_B_iso_or_equiv
   _atom_site_type_symbol
   Co1         1.0     0.537449     0.500115     0.512434    Biso  1.000000 Co
   Co2         1.0     0.462551     0.499885     0.012434    Biso  1.000000 Co
   Co3         1.0     0.037449     0.999885     0.512434    Biso  1.000000 Co
   Co4         1.0     0.962551     0.000115     0.012434    Biso  1.000000 Co
   O1          1.0     0.560030     0.646358     0.667846    Biso  1.000000 O
   O2          1.0     0.439970     0.353642     0.167846    Biso  1.000000 O
   O3          1.0     0.060030     0.853642     0.667846    Biso  1.000000 O
   O4          1.0     0.939970     0.146358     0.167846    Biso  1.000000 O
   O5          1.0     0.504765     0.640504     0.858647    Biso  1.000000 O
   O6          1.0     0.495235     0.359496     0.358647    Biso  1.000000 O
   O7          1.0     0.004765     0.859496     0.858647    Biso  1.000000 O
   O8          1.0     0.995235     0.140504     0.358647    Biso  1.000000 O
   O9          1.0     0.445754     0.729262     0.440693    Biso  1.000000 O
   O10         1.0     0.554246     0.270738     0.940693    Biso  1.000000 O
   O11         1.0     0.945754     0.770738     0.440693    Biso  1.000000 O
   O12         1.0     0.054246     0.229262     0.940693    Biso  1.000000 O
   O13         1.0     0.252509     0.922590     0.439179    Biso  1.000000 O
   O14         1.0     0.747491     0.077410     0.939179    Biso  1.000000 O
   O15         1.0     0.752509     0.577410     0.439179    Biso  1.000000 O
   O16         1.0     0.247491     0.422590     0.939179    Biso  1.000000 O
   O17         1.0     0.320495     0.426478     0.580069    Biso  1.000000 O
   O18         1.0     0.679505     0.573522     0.080068    Biso  1.000000 O
   O19         1.0     0.820495     0.073522     0.580069    Biso  1.000000 O
   O20         1.0     0.179505     0.926478     0.080068    Biso  1.000000 O
   O21         1.0     0.128542     0.232363     0.581923    Biso  1.000000 O
   O22         1.0     0.871458     0.767637     0.081923    Biso  1.000000 O
   O23         1.0     0.628542     0.267637     0.581923    Biso  1.000000 O
   O24         1.0     0.371458     0.732363     0.081923    Biso  1.000000 O
   C1          1.0     0.532825     0.565279     0.762642    Biso  1.000000 C
   C2          1.0     0.467175     0.434721     0.262642    Biso  1.000000 C
   C3          1.0     0.032825     0.934721     0.762642    Biso  1.000000 C
   C4          1.0     0.967175     0.065279     0.262642    Biso  1.000000 C
   C5          1.0     0.321634     0.791679     0.482357    Biso  1.000000 C
   C6          1.0     0.678366     0.208321     0.982357    Biso  1.000000 C
   C7          1.0     0.821634     0.708321     0.482357    Biso  1.000000 C
   C8          1.0     0.178366     0.291679     0.982357    Biso  1.000000 C
   C9          1.0     0.265328     0.279916     0.553908    Biso  1.000000 C
   C10         1.0     0.734672     0.720084     0.053908    Biso  1.000000 C
   C11         1.0     0.765328     0.220084     0.553908    Biso  1.000000 C
   C12         1.0     0.234672     0.779916     0.053908    Biso  1.000000 C
   H1          1.0     0.534078     0.422913     0.760246    Biso  1.000000 H
   H2          1.0     0.465922     0.577087     0.260246    Biso  1.000000 H
   H3          1.0     0.034078     0.077087     0.760246    Biso  1.000000 H
   H4          1.0     0.965922     0.922913     0.260246    Biso  1.000000 H
   H5          1.0     0.270240     0.729805     0.559922    Biso  1.000000 H
   H6          1.0     0.729759     0.270195     0.059922    Biso  1.000000 H
   H7          1.0     0.770241     0.770195     0.559922    Biso  1.000000 H
   H8          1.0     0.229759     0.229805     0.059922    Biso  1.000000 H
   H9          1.0     0.337688     0.188699     0.503832    Biso  1.000000 H
   H10         1.0     0.662312     0.811301     0.003832    Biso  1.000000 H
   H11         1.0     0.837688     0.311301     0.503832    Biso  1.000000 H
   H12         1.0     0.162312     0.688699     0.003832    Biso  1.000000 H
   H13         1.0     0.071538     0.409853     0.677414    Biso  1.000000 H
   H14         1.0     0.928462     0.590147     0.177414    Biso  1.000000 H
   H15         1.0     0.571538     0.090147     0.677414    Biso  1.000000 H
   H16         1.0     0.428462     0.909853     0.177414    Biso  1.000000 H
   H17         1.0     0.069817     0.628763     0.702838    Biso  1.000000 H
   H18         1.0     0.930183     0.371237     0.202838    Biso  1.000000 H
   H19         1.0     0.569817     0.871237     0.702838    Biso  1.000000 H
   H20         1.0     0.430183     0.128763     0.202838    Biso  1.000000 H
   H21         1.0     0.146721     0.488232     0.803603    Biso  1.000000 H
   H22         1.0     0.853279     0.511768     0.303603    Biso  1.000000 H
   H23         1.0     0.646721     0.011768     0.803603    Biso  1.000000 H
   H24         1.0     0.353279     0.988232     0.303603    Biso  1.000000 H
   H25         1.0     0.914987     0.396855     0.852744    Biso  1.000000 H
   H26         1.0     0.085013     0.603145     0.352744    Biso  1.000000 H
   H27         1.0     0.414987     0.103145     0.852744    Biso  1.000000 H
   H28         1.0     0.585013     0.896855     0.352744    Biso  1.000000 H
   H29         1.0     0.896609     0.608739     0.839789    Biso  1.000000 H
   H30         1.0     0.103391     0.391261     0.339789    Biso  1.000000 H
   H31         1.0     0.396609     0.891261     0.839789    Biso  1.000000 H
   H32         1.0     0.603391     0.108739     0.339789    Biso  1.000000 H
   N1          1.0     0.906064     0.495773     0.792995    Biso  1.000000 N
   N2          1.0     0.093936     0.504227     0.292995    Biso  1.000000 N
   N3          1.0     0.406064     0.004227     0.792995    Biso  1.000000 N
   N4          1.0     0.593936     0.995773     0.292995    Biso  1.000000 N
   N5          1.0     0.059100     0.505845     0.741091    Biso  1.000000 N
   N6          1.0     0.940900     0.494155     0.241091    Biso  1.000000 N
   N7          1.0     0.559100     0.994155     0.741091    Biso  1.000000 N
   N8          1.0     0.440900     0.005845     0.241091    Biso  1.000000 N
